
            <routes>
                <vType guiShape="passenger/hatchback" accel="1.0" decel="4.0" id="Car" color="white" width="2.5" length="4.0" minGap="1.0" maxSpeed="80.0" sigma="0.2"/>
                <vType guiShape="bus" accel="0.5" decel="5.0" id="Bus" color="blue" width="3.5" length="6.0" minGap="1.0" maxSpeed="40.0" sigma="0.3"/>
                <vType guiShape="motorcycle" accel="1.0" decel="4.0" id="Bike" color="green" width="1.5" length="2.0" minGap="1.0" maxSpeed="60.0" sigma="0.6"/>
                <vType guiShape="evehicle" accel="1.0" decel="4.0" id="Auto" color="yellow" width="2.0" length="3.0" minGap="1.0" maxSpeed="50.0" sigma="0.6"/>
                
                <route id="W_N" edges="W2TL TL2N"/>
                <route id="W_E" edges="W2TL TL2E"/>
                <route id="W_S" edges="W2TL TL2S"/>
                <route id="N_W" edges="N2TL TL2W"/>
                <route id="N_E" edges="N2TL TL2E"/>
                <route id="N_S" edges="N2TL TL2S"/>
                <route id="E_W" edges="E2TL TL2W"/>
                <route id="E_N" edges="E2TL TL2N"/>
                <route id="E_S" edges="E2TL TL2S"/>
                <route id="S_W" edges="S2TL TL2W"/>
                <route id="S_N" edges="S2TL TL2N"/>
                <route id="S_E" edges="S2TL TL2E"/>
    <vehicle id="E_W_0" type="Bus" route="E_W" depart="33.0" departLane="random" departSpeed="10" />
    <vehicle id="N_E_1" type="Bike" route="N_E" depart="44.0" departLane="random" departSpeed="10" />
    <vehicle id="N_W_2" type="Bike" route="S_W" depart="55.0" departLane="random" departSpeed="10" />
    <vehicle id="W_N_3" type="Bike" route="W_N" depart="78.0" departLane="random" departSpeed="10" />
    <vehicle id="E_W_4" type="Bike" route="E_W" depart="81.0" departLane="random" departSpeed="10" />
    <vehicle id="N_W_5" type="Bike" route="S_W" depart="98.0" departLane="random" departSpeed="10" />
    <vehicle id="W_N_6" type="Car" route="W_N" depart="103.0" departLane="random" departSpeed="10" />
    <vehicle id="W_S_7" type="Bike" route="E_S" depart="119.0" departLane="random" departSpeed="10" />
    <vehicle id="E_S_8" type="Auto" route="W_S" depart="138.0" departLane="random" departSpeed="10" />
    <vehicle id="S_W_9" type="Auto" route="N_W" depart="142.0" departLane="random" departSpeed="10" />
    <vehicle id="N_W_10" type="Bike" route="S_W" depart="146.0" departLane="random" departSpeed="10" />
    <vehicle id="S_N_11" type="Bike" route="S_N" depart="148.0" departLane="random" departSpeed="10" />
    <vehicle id="N_E_12" type="Auto" route="N_E" depart="160.0" departLane="random" departSpeed="10" />
    <vehicle id="N_W_13" type="Auto" route="S_W" depart="162.0" departLane="random" departSpeed="10" />
    <vehicle id="W_N_14" type="Car" route="W_N" depart="163.0" departLane="random" departSpeed="10" />
    <vehicle id="W_E_15" type="Car" route="W_E" depart="164.0" departLane="random" departSpeed="10" />
    <vehicle id="N_W_16" type="Bike" route="S_W" depart="166.0" departLane="random" departSpeed="10" />
    <vehicle id="W_E_17" type="Car" route="W_E" depart="176.0" departLane="random" departSpeed="10" />
    <vehicle id="W_E_18" type="Car" route="W_E" depart="177.0" departLane="random" departSpeed="10" />
    <vehicle id="N_W_19" type="Car" route="S_W" depart="180.0" departLane="random" departSpeed="10" />
    <vehicle id="N_S_20" type="Bike" route="N_S" depart="182.0" departLane="random" departSpeed="10" />
    <vehicle id="S_N_21" type="Bike" route="S_N" depart="187.0" departLane="random" departSpeed="10" />
    <vehicle id="W_E_22" type="Bike" route="W_E" depart="203.0" departLane="random" departSpeed="10" />
    <vehicle id="W_S_23" type="Bike" route="E_S" depart="209.0" departLane="random" departSpeed="10" />
    <vehicle id="W_S_24" type="Bike" route="E_S" depart="211.0" departLane="random" departSpeed="10" />
    <vehicle id="E_W_25" type="Bike" route="E_W" depart="212.0" departLane="random" departSpeed="10" />
    <vehicle id="W_S_26" type="Bus" route="E_S" depart="227.0" departLane="random" departSpeed="10" />
    <vehicle id="S_W_27" type="Car" route="N_W" depart="233.0" departLane="random" departSpeed="10" />
    <vehicle id="E_W_28" type="Bus" route="E_W" depart="237.0" departLane="random" departSpeed="10" />
    <vehicle id="N_W_29" type="Car" route="S_W" depart="240.0" departLane="random" departSpeed="10" />
    <vehicle id="W_N_30" type="Car" route="W_N" depart="247.0" departLane="random" departSpeed="10" />
    <vehicle id="N_E_31" type="Bus" route="N_E" depart="249.0" departLane="random" departSpeed="10" />
    <vehicle id="W_E_32" type="Car" route="W_E" depart="249.0" departLane="random" departSpeed="10" />
    <vehicle id="W_E_33" type="Bike" route="W_E" depart="256.0" departLane="random" departSpeed="10" />
    <vehicle id="S_W_34" type="Auto" route="N_W" depart="257.0" departLane="random" departSpeed="10" />
    <vehicle id="S_N_35" type="Car" route="S_N" depart="259.0" departLane="random" departSpeed="10" />
    <vehicle id="W_E_36" type="Car" route="W_E" depart="261.0" departLane="random" departSpeed="10" />
    <vehicle id="N_E_37" type="Bike" route="N_E" depart="269.0" departLane="random" departSpeed="10" />
    <vehicle id="W_S_38" type="Bike" route="E_S" depart="269.0" departLane="random" departSpeed="10" />
    <vehicle id="E_S_39" type="Auto" route="W_S" depart="270.0" departLane="random" departSpeed="10" />
    <vehicle id="N_W_40" type="Bike" route="S_W" depart="271.0" departLane="random" departSpeed="10" />
    <vehicle id="N_E_41" type="Car" route="N_E" depart="274.0" departLane="random" departSpeed="10" />
    <vehicle id="W_N_42" type="Auto" route="W_N" depart="276.0" departLane="random" departSpeed="10" />
    <vehicle id="W_S_43" type="Bike" route="E_S" depart="277.0" departLane="random" departSpeed="10" />
    <vehicle id="N_W_44" type="Bike" route="S_W" depart="279.0" departLane="random" departSpeed="10" />
    <vehicle id="W_S_45" type="Bike" route="E_S" depart="284.0" departLane="random" departSpeed="10" />
    <vehicle id="E_N_46" type="Bike" route="E_N" depart="287.0" departLane="random" departSpeed="10" />
    <vehicle id="W_N_47" type="Bike" route="W_N" depart="288.0" departLane="random" departSpeed="10" />
    <vehicle id="E_S_48" type="Bike" route="W_S" depart="290.0" departLane="random" departSpeed="10" />
    <vehicle id="W_S_49" type="Car" route="E_S" depart="293.0" departLane="random" departSpeed="10" />
    <vehicle id="W_S_50" type="Bike" route="E_S" depart="298.0" departLane="random" departSpeed="10" />
    <vehicle id="N_S_51" type="Bike" route="N_S" depart="301.0" departLane="random" departSpeed="10" />
    <vehicle id="W_N_52" type="Car" route="W_N" depart="302.0" departLane="random" departSpeed="10" />
    <vehicle id="N_W_53" type="Car" route="S_W" depart="302.0" departLane="random" departSpeed="10" />
    <vehicle id="W_S_54" type="Bike" route="E_S" depart="304.0" departLane="random" departSpeed="10" />
    <vehicle id="N_E_55" type="Bike" route="N_E" depart="310.0" departLane="random" departSpeed="10" />
    <vehicle id="S_N_56" type="Bike" route="S_N" depart="313.0" departLane="random" departSpeed="10" />
    <vehicle id="W_E_57" type="Car" route="W_E" depart="315.0" departLane="random" departSpeed="10" />
    <vehicle id="S_N_58" type="Bike" route="S_N" depart="316.0" departLane="random" departSpeed="10" />
    <vehicle id="E_S_59" type="Auto" route="W_S" depart="316.0" departLane="random" departSpeed="10" />
    <vehicle id="N_W_60" type="Bike" route="S_W" depart="320.0" departLane="random" departSpeed="10" />
    <vehicle id="E_S_61" type="Car" route="W_S" depart="324.0" departLane="random" departSpeed="10" />
    <vehicle id="W_E_62" type="Bike" route="W_E" depart="324.0" departLane="random" departSpeed="10" />
    <vehicle id="N_W_63" type="Bike" route="S_W" depart="329.0" departLane="random" departSpeed="10" />
    <vehicle id="W_S_64" type="Bike" route="E_S" depart="330.0" departLane="random" departSpeed="10" />
    <vehicle id="S_E_65" type="Bike" route="S_E" depart="332.0" departLane="random" departSpeed="10" />
    <vehicle id="N_S_66" type="Bike" route="N_S" depart="333.0" departLane="random" departSpeed="10" />
    <vehicle id="W_E_67" type="Bus" route="W_E" depart="336.0" departLane="random" departSpeed="10" />
    <vehicle id="S_E_68" type="Car" route="S_E" depart="339.0" departLane="random" departSpeed="10" />
    <vehicle id="E_N_69" type="Bike" route="E_N" depart="341.0" departLane="random" departSpeed="10" />
    <vehicle id="E_W_70" type="Car" route="E_W" depart="342.0" departLane="random" departSpeed="10" />
    <vehicle id="W_S_71" type="Car" route="E_S" depart="342.0" departLane="random" departSpeed="10" />
    <vehicle id="N_W_72" type="Bike" route="S_W" depart="345.0" departLane="random" departSpeed="10" />
    <vehicle id="S_W_73" type="Bike" route="N_W" depart="346.0" departLane="random" departSpeed="10" />
    <vehicle id="N_E_74" type="Bike" route="N_E" depart="346.0" departLane="random" departSpeed="10" />
    <vehicle id="W_N_75" type="Bike" route="W_N" depart="351.0" departLane="random" departSpeed="10" />
    <vehicle id="S_N_76" type="Bike" route="S_N" depart="353.0" departLane="random" departSpeed="10" />
    <vehicle id="N_S_77" type="Bike" route="N_S" depart="356.0" departLane="random" departSpeed="10" />
    <vehicle id="N_S_78" type="Bike" route="N_S" depart="356.0" departLane="random" departSpeed="10" />
    <vehicle id="E_S_79" type="Bike" route="W_S" depart="358.0" departLane="random" departSpeed="10" />
    <vehicle id="E_W_80" type="Auto" route="E_W" depart="359.0" departLane="random" departSpeed="10" />
    <vehicle id="N_E_81" type="Bike" route="N_E" depart="361.0" departLane="random" departSpeed="10" />
    <vehicle id="N_S_82" type="Car" route="N_S" depart="363.0" departLane="random" departSpeed="10" />
    <vehicle id="W_S_83" type="Car" route="E_S" depart="367.0" departLane="random" departSpeed="10" />
    <vehicle id="E_S_84" type="Bike" route="W_S" depart="368.0" departLane="random" departSpeed="10" />
    <vehicle id="N_E_85" type="Bike" route="N_E" depart="373.0" departLane="random" departSpeed="10" />
    <vehicle id="N_W_86" type="Bike" route="S_W" depart="373.0" departLane="random" departSpeed="10" />
    <vehicle id="W_E_87" type="Bike" route="W_E" depart="375.0" departLane="random" departSpeed="10" />
    <vehicle id="N_E_88" type="Bike" route="N_E" depart="375.0" departLane="random" departSpeed="10" />
    <vehicle id="N_S_89" type="Bike" route="N_S" depart="376.0" departLane="random" departSpeed="10" />
    <vehicle id="W_N_90" type="Car" route="W_N" depart="377.0" departLane="random" departSpeed="10" />
    <vehicle id="W_E_91" type="Bike" route="W_E" depart="380.0" departLane="random" departSpeed="10" />
    <vehicle id="N_E_92" type="Bike" route="N_E" depart="386.0" departLane="random" departSpeed="10" />
    <vehicle id="W_N_93" type="Bike" route="W_N" depart="388.0" departLane="random" departSpeed="10" />
    <vehicle id="N_W_94" type="Bike" route="S_W" depart="390.0" departLane="random" departSpeed="10" />
    <vehicle id="W_S_95" type="Bus" route="E_S" depart="390.0" departLane="random" departSpeed="10" />
    <vehicle id="E_N_96" type="Bike" route="E_N" depart="394.0" departLane="random" departSpeed="10" />
    <vehicle id="W_E_97" type="Bike" route="W_E" depart="396.0" departLane="random" departSpeed="10" />
    <vehicle id="W_N_98" type="Car" route="W_N" depart="401.0" departLane="random" departSpeed="10" />
    <vehicle id="S_N_99" type="Bike" route="S_N" depart="403.0" departLane="random" departSpeed="10" />
    <vehicle id="W_N_100" type="Bike" route="W_N" depart="405.0" departLane="random" departSpeed="10" />
    <vehicle id="N_E_101" type="Bike" route="N_E" depart="406.0" departLane="random" departSpeed="10" />
    <vehicle id="W_N_102" type="Auto" route="W_N" depart="406.0" departLane="random" departSpeed="10" />
    <vehicle id="W_N_103" type="Car" route="W_N" depart="406.0" departLane="random" departSpeed="10" />
    <vehicle id="N_W_104" type="Bike" route="S_W" depart="416.0" departLane="random" departSpeed="10" />
    <vehicle id="E_W_105" type="Bike" route="E_W" depart="419.0" departLane="random" departSpeed="10" />
    <vehicle id="W_S_106" type="Car" route="E_S" depart="422.0" departLane="random" departSpeed="10" />
    <vehicle id="W_S_107" type="Car" route="E_S" depart="424.0" departLane="random" departSpeed="10" />
    <vehicle id="W_E_108" type="Bike" route="W_E" depart="426.0" departLane="random" departSpeed="10" />
    <vehicle id="E_W_109" type="Car" route="E_W" depart="430.0" departLane="random" departSpeed="10" />
    <vehicle id="E_W_110" type="Bus" route="E_W" depart="434.0" departLane="random" departSpeed="10" />
    <vehicle id="N_W_111" type="Bike" route="S_W" depart="438.0" departLane="random" departSpeed="10" />
    <vehicle id="S_N_112" type="Bike" route="S_N" depart="438.0" departLane="random" departSpeed="10" />
    <vehicle id="N_W_113" type="Car" route="S_W" depart="440.0" departLane="random" departSpeed="10" />
    <vehicle id="W_N_114" type="Bike" route="W_N" depart="440.0" departLane="random" departSpeed="10" />
    <vehicle id="N_E_115" type="Car" route="N_E" depart="441.0" departLane="random" departSpeed="10" />
    <vehicle id="N_E_116" type="Bike" route="N_E" depart="443.0" departLane="random" departSpeed="10" />
    <vehicle id="N_W_117" type="Car" route="S_W" depart="445.0" departLane="random" departSpeed="10" />
    <vehicle id="N_W_118" type="Car" route="S_W" depart="447.0" departLane="random" departSpeed="10" />
    <vehicle id="S_E_119" type="Bike" route="S_E" depart="455.0" departLane="random" departSpeed="10" />
    <vehicle id="N_W_120" type="Auto" route="S_W" depart="456.0" departLane="random" departSpeed="10" />
    <vehicle id="W_S_121" type="Bike" route="E_S" depart="457.0" departLane="random" departSpeed="10" />
    <vehicle id="N_E_122" type="Auto" route="N_E" depart="462.0" departLane="random" departSpeed="10" />
    <vehicle id="W_N_123" type="Bike" route="W_N" depart="463.0" departLane="random" departSpeed="10" />
    <vehicle id="S_W_124" type="Car" route="N_W" depart="465.0" departLane="random" departSpeed="10" />
    <vehicle id="W_E_125" type="Car" route="W_E" depart="466.0" departLane="random" departSpeed="10" />
    <vehicle id="W_N_126" type="Car" route="W_N" depart="469.0" departLane="random" departSpeed="10" />
    <vehicle id="W_N_127" type="Bike" route="W_N" depart="472.0" departLane="random" departSpeed="10" />
    <vehicle id="W_N_128" type="Bike" route="W_N" depart="472.0" departLane="random" departSpeed="10" />
    <vehicle id="N_S_129" type="Bike" route="N_S" depart="472.0" departLane="random" departSpeed="10" />
    <vehicle id="E_W_130" type="Auto" route="E_W" depart="475.0" departLane="random" departSpeed="10" />
    <vehicle id="N_E_131" type="Bike" route="N_E" depart="475.0" departLane="random" departSpeed="10" />
    <vehicle id="N_S_132" type="Auto" route="N_S" depart="476.0" departLane="random" departSpeed="10" />
    <vehicle id="W_S_133" type="Bike" route="E_S" depart="477.0" departLane="random" departSpeed="10" />
    <vehicle id="N_S_134" type="Bike" route="N_S" depart="479.0" departLane="random" departSpeed="10" />
    <vehicle id="W_E_135" type="Bike" route="W_E" depart="482.0" departLane="random" departSpeed="10" />
    <vehicle id="E_W_136" type="Bus" route="E_W" depart="487.0" departLane="random" departSpeed="10" />
    <vehicle id="N_W_137" type="Car" route="S_W" depart="488.0" departLane="random" departSpeed="10" />
    <vehicle id="N_E_138" type="Bike" route="N_E" depart="489.0" departLane="random" departSpeed="10" />
    <vehicle id="E_W_139" type="Bike" route="E_W" depart="490.0" departLane="random" departSpeed="10" />
    <vehicle id="N_E_140" type="Bike" route="N_E" depart="494.0" departLane="random" departSpeed="10" />
    <vehicle id="N_E_141" type="Bike" route="N_E" depart="494.0" departLane="random" departSpeed="10" />
    <vehicle id="E_S_142" type="Bike" route="W_S" depart="495.0" departLane="random" departSpeed="10" />
    <vehicle id="S_N_143" type="Bike" route="S_N" depart="496.0" departLane="random" departSpeed="10" />
    <vehicle id="W_N_144" type="Bike" route="W_N" depart="496.0" departLane="random" departSpeed="10" />
    <vehicle id="W_E_145" type="Bike" route="W_E" depart="496.0" departLane="random" departSpeed="10" />
    <vehicle id="E_W_146" type="Bike" route="E_W" depart="497.0" departLane="random" departSpeed="10" />
    <vehicle id="W_N_147" type="Bike" route="W_N" depart="498.0" departLane="random" departSpeed="10" />
    <vehicle id="S_N_148" type="Auto" route="S_N" depart="499.0" departLane="random" departSpeed="10" />
    <vehicle id="N_S_149" type="Bike" route="N_S" depart="503.0" departLane="random" departSpeed="10" />
    <vehicle id="N_E_150" type="Bike" route="N_E" depart="504.0" departLane="random" departSpeed="10" />
    <vehicle id="E_W_151" type="Bike" route="E_W" depart="505.0" departLane="random" departSpeed="10" />
    <vehicle id="N_E_152" type="Car" route="N_E" depart="509.0" departLane="random" departSpeed="10" />
    <vehicle id="W_E_153" type="Car" route="W_E" depart="509.0" departLane="random" departSpeed="10" />
    <vehicle id="W_N_154" type="Auto" route="W_N" depart="512.0" departLane="random" departSpeed="10" />
    <vehicle id="N_W_155" type="Bike" route="S_W" depart="512.0" departLane="random" departSpeed="10" />
    <vehicle id="N_W_156" type="Car" route="S_W" depart="516.0" departLane="random" departSpeed="10" />
    <vehicle id="N_S_157" type="Bike" route="N_S" depart="518.0" departLane="random" departSpeed="10" />
    <vehicle id="N_S_158" type="Auto" route="N_S" depart="518.0" departLane="random" departSpeed="10" />
    <vehicle id="E_N_159" type="Bike" route="E_N" depart="522.0" departLane="random" departSpeed="10" />
    <vehicle id="W_N_160" type="Bike" route="W_N" depart="522.0" departLane="random" departSpeed="10" />
    <vehicle id="W_E_161" type="Car" route="W_E" depart="523.0" departLane="random" departSpeed="10" />
    <vehicle id="N_E_162" type="Auto" route="N_E" depart="523.0" departLane="random" departSpeed="10" />
    <vehicle id="N_W_163" type="Bike" route="S_W" depart="523.0" departLane="random" departSpeed="10" />
    <vehicle id="S_N_164" type="Bike" route="S_N" depart="524.0" departLane="random" departSpeed="10" />
    <vehicle id="E_W_165" type="Bus" route="E_W" depart="524.0" departLane="random" departSpeed="10" />
    <vehicle id="W_S_166" type="Bike" route="E_S" depart="526.0" departLane="random" departSpeed="10" />
    <vehicle id="W_N_167" type="Bike" route="W_N" depart="527.0" departLane="random" departSpeed="10" />
    <vehicle id="N_W_168" type="Car" route="S_W" depart="527.0" departLane="random" departSpeed="10" />
    <vehicle id="N_E_169" type="Bus" route="N_E" depart="530.0" departLane="random" departSpeed="10" />
    <vehicle id="N_W_170" type="Bike" route="S_W" depart="531.0" departLane="random" departSpeed="10" />
    <vehicle id="N_S_171" type="Bike" route="N_S" depart="533.0" departLane="random" departSpeed="10" />
    <vehicle id="S_N_172" type="Bike" route="S_N" depart="541.0" departLane="random" departSpeed="10" />
    <vehicle id="N_W_173" type="Car" route="S_W" depart="541.0" departLane="random" departSpeed="10" />
    <vehicle id="N_W_174" type="Car" route="S_W" depart="543.0" departLane="random" departSpeed="10" />
    <vehicle id="W_E_175" type="Bike" route="W_E" depart="543.0" departLane="random" departSpeed="10" />
    <vehicle id="N_S_176" type="Car" route="N_S" depart="544.0" departLane="random" departSpeed="10" />
    <vehicle id="W_N_177" type="Bus" route="W_N" depart="545.0" departLane="random" departSpeed="10" />
    <vehicle id="N_W_178" type="Bike" route="S_W" depart="547.0" departLane="random" departSpeed="10" />
    <vehicle id="N_S_179" type="Auto" route="N_S" depart="554.0" departLane="random" departSpeed="10" />
    <vehicle id="W_N_180" type="Bike" route="W_N" depart="554.0" departLane="random" departSpeed="10" />
    <vehicle id="W_N_181" type="Bike" route="W_N" depart="555.0" departLane="random" departSpeed="10" />
    <vehicle id="W_N_182" type="Auto" route="W_N" depart="557.0" departLane="random" departSpeed="10" />
    <vehicle id="W_N_183" type="Auto" route="W_N" depart="559.0" departLane="random" departSpeed="10" />
    <vehicle id="N_E_184" type="Car" route="N_E" depart="561.0" departLane="random" departSpeed="10" />
    <vehicle id="N_W_185" type="Car" route="S_W" depart="561.0" departLane="random" departSpeed="10" />
    <vehicle id="N_E_186" type="Bike" route="N_E" depart="564.0" departLane="random" departSpeed="10" />
    <vehicle id="N_S_187" type="Car" route="N_S" depart="565.0" departLane="random" departSpeed="10" />
    <vehicle id="N_W_188" type="Bike" route="S_W" depart="568.0" departLane="random" departSpeed="10" />
    <vehicle id="N_W_189" type="Car" route="S_W" depart="569.0" departLane="random" departSpeed="10" />
    <vehicle id="W_S_190" type="Bike" route="E_S" depart="572.0" departLane="random" departSpeed="10" />
    <vehicle id="S_E_191" type="Auto" route="S_E" depart="572.0" departLane="random" departSpeed="10" />
    <vehicle id="W_N_192" type="Bike" route="W_N" depart="575.0" departLane="random" departSpeed="10" />
    <vehicle id="N_E_193" type="Bus" route="N_E" depart="575.0" departLane="random" departSpeed="10" />
    <vehicle id="N_E_194" type="Car" route="N_E" depart="577.0" departLane="random" departSpeed="10" />
    <vehicle id="W_S_195" type="Bus" route="E_S" depart="578.0" departLane="random" departSpeed="10" />
    <vehicle id="W_E_196" type="Bike" route="W_E" depart="580.0" departLane="random" departSpeed="10" />
    <vehicle id="S_N_197" type="Auto" route="S_N" depart="582.0" departLane="random" departSpeed="10" />
    <vehicle id="W_S_198" type="Bike" route="E_S" depart="582.0" departLane="random" departSpeed="10" />
    <vehicle id="E_S_199" type="Bus" route="W_S" depart="582.0" departLane="random" departSpeed="10" />
    <vehicle id="E_W_200" type="Car" route="E_W" depart="583.0" departLane="random" departSpeed="10" />
    <vehicle id="S_E_201" type="Bike" route="S_E" depart="588.0" departLane="random" departSpeed="10" />
    <vehicle id="W_N_202" type="Auto" route="W_N" depart="589.0" departLane="random" departSpeed="10" />
    <vehicle id="W_E_203" type="Bike" route="W_E" depart="591.0" departLane="random" departSpeed="10" />
    <vehicle id="N_W_204" type="Car" route="S_W" depart="592.0" departLane="random" departSpeed="10" />
    <vehicle id="N_S_205" type="Car" route="N_S" depart="593.0" departLane="random" departSpeed="10" />
    <vehicle id="W_S_206" type="Car" route="E_S" depart="595.0" departLane="random" departSpeed="10" />
    <vehicle id="N_W_207" type="Bike" route="S_W" depart="595.0" departLane="random" departSpeed="10" />
    <vehicle id="W_E_208" type="Car" route="W_E" depart="598.0" departLane="random" departSpeed="10" />
    <vehicle id="N_E_209" type="Bus" route="N_E" depart="599.0" departLane="random" departSpeed="10" />
    <vehicle id="S_N_210" type="Auto" route="S_N" depart="599.0" departLane="random" departSpeed="10" />
    <vehicle id="N_S_211" type="Car" route="N_S" depart="601.0" departLane="random" departSpeed="10" />
    <vehicle id="N_E_212" type="Bike" route="N_E" depart="602.0" departLane="random" departSpeed="10" />
    <vehicle id="S_N_213" type="Auto" route="S_N" depart="603.0" departLane="random" departSpeed="10" />
    <vehicle id="E_W_214" type="Auto" route="E_W" depart="605.0" departLane="random" departSpeed="10" />
    <vehicle id="N_S_215" type="Car" route="N_S" depart="606.0" departLane="random" departSpeed="10" />
    <vehicle id="N_S_216" type="Bike" route="N_S" depart="610.0" departLane="random" departSpeed="10" />
    <vehicle id="W_S_217" type="Car" route="E_S" depart="614.0" departLane="random" departSpeed="10" />
    <vehicle id="E_N_218" type="Bike" route="E_N" depart="615.0" departLane="random" departSpeed="10" />
    <vehicle id="N_E_219" type="Bike" route="N_E" depart="618.0" departLane="random" departSpeed="10" />
    <vehicle id="E_N_220" type="Auto" route="E_N" depart="621.0" departLane="random" departSpeed="10" />
    <vehicle id="E_W_221" type="Bike" route="E_W" depart="623.0" departLane="random" departSpeed="10" />
    <vehicle id="N_W_222" type="Bike" route="S_W" depart="625.0" departLane="random" departSpeed="10" />
    <vehicle id="W_E_223" type="Car" route="W_E" depart="626.0" departLane="random" departSpeed="10" />
    <vehicle id="N_S_224" type="Bike" route="N_S" depart="626.0" departLane="random" departSpeed="10" />
    <vehicle id="S_N_225" type="Bus" route="S_N" depart="629.0" departLane="random" departSpeed="10" />
    <vehicle id="E_W_226" type="Bike" route="E_W" depart="629.0" departLane="random" departSpeed="10" />
    <vehicle id="N_S_227" type="Bike" route="N_S" depart="633.0" departLane="random" departSpeed="10" />
    <vehicle id="W_S_228" type="Bus" route="E_S" depart="633.0" departLane="random" departSpeed="10" />
    <vehicle id="W_N_229" type="Bike" route="W_N" depart="636.0" departLane="random" departSpeed="10" />
    <vehicle id="W_E_230" type="Bike" route="W_E" depart="636.0" departLane="random" departSpeed="10" />
    <vehicle id="S_N_231" type="Bike" route="S_N" depart="637.0" departLane="random" departSpeed="10" />
    <vehicle id="N_S_232" type="Car" route="N_S" depart="638.0" departLane="random" departSpeed="10" />
    <vehicle id="E_W_233" type="Bike" route="E_W" depart="639.0" departLane="random" departSpeed="10" />
    <vehicle id="N_E_234" type="Bike" route="N_E" depart="642.0" departLane="random" departSpeed="10" />
    <vehicle id="W_N_235" type="Bike" route="W_N" depart="642.0" departLane="random" departSpeed="10" />
    <vehicle id="W_S_236" type="Bike" route="E_S" depart="644.0" departLane="random" departSpeed="10" />
    <vehicle id="S_N_237" type="Bike" route="S_N" depart="644.0" departLane="random" departSpeed="10" />
    <vehicle id="S_N_238" type="Bike" route="S_N" depart="645.0" departLane="random" departSpeed="10" />
    <vehicle id="W_S_239" type="Car" route="E_S" depart="647.0" departLane="random" departSpeed="10" />
    <vehicle id="W_N_240" type="Bike" route="W_N" depart="653.0" departLane="random" departSpeed="10" />
    <vehicle id="W_S_241" type="Bike" route="E_S" depart="657.0" departLane="random" departSpeed="10" />
    <vehicle id="W_N_242" type="Bike" route="W_N" depart="657.0" departLane="random" departSpeed="10" />
    <vehicle id="W_E_243" type="Bike" route="W_E" depart="659.0" departLane="random" departSpeed="10" />
    <vehicle id="E_W_244" type="Bike" route="E_W" depart="661.0" departLane="random" departSpeed="10" />
    <vehicle id="N_E_245" type="Bike" route="N_E" depart="662.0" departLane="random" departSpeed="10" />
    <vehicle id="W_S_246" type="Bike" route="E_S" depart="662.0" departLane="random" departSpeed="10" />
    <vehicle id="E_W_247" type="Bike" route="E_W" depart="663.0" departLane="random" departSpeed="10" />
    <vehicle id="S_W_248" type="Car" route="N_W" depart="664.0" departLane="random" departSpeed="10" />
    <vehicle id="W_S_249" type="Bus" route="E_S" depart="665.0" departLane="random" departSpeed="10" />
    <vehicle id="S_N_250" type="Car" route="S_N" depart="665.0" departLane="random" departSpeed="10" />
    <vehicle id="N_W_251" type="Bike" route="S_W" depart="668.0" departLane="random" departSpeed="10" />
    <vehicle id="W_N_252" type="Bike" route="W_N" depart="668.0" departLane="random" departSpeed="10" />
    <vehicle id="N_S_253" type="Bike" route="N_S" depart="670.0" departLane="random" departSpeed="10" />
    <vehicle id="N_E_254" type="Auto" route="N_E" depart="672.0" departLane="random" departSpeed="10" />
    <vehicle id="N_E_255" type="Bike" route="N_E" depart="674.0" departLane="random" departSpeed="10" />
    <vehicle id="W_S_256" type="Bike" route="E_S" depart="680.0" departLane="random" departSpeed="10" />
    <vehicle id="W_E_257" type="Car" route="W_E" depart="680.0" departLane="random" departSpeed="10" />
    <vehicle id="W_N_258" type="Car" route="W_N" depart="680.0" departLane="random" departSpeed="10" />
    <vehicle id="N_E_259" type="Auto" route="N_E" depart="681.0" departLane="random" departSpeed="10" />
    <vehicle id="N_W_260" type="Bike" route="S_W" depart="681.0" departLane="random" departSpeed="10" />
    <vehicle id="S_N_261" type="Bike" route="S_N" depart="684.0" departLane="random" departSpeed="10" />
    <vehicle id="S_W_262" type="Bike" route="N_W" depart="685.0" departLane="random" departSpeed="10" />
    <vehicle id="N_W_263" type="Bike" route="S_W" depart="686.0" departLane="random" departSpeed="10" />
    <vehicle id="W_N_264" type="Auto" route="W_N" depart="686.0" departLane="random" departSpeed="10" />
    <vehicle id="N_W_265" type="Bike" route="S_W" depart="687.0" departLane="random" departSpeed="10" />
    <vehicle id="W_N_266" type="Bike" route="W_N" depart="687.0" departLane="random" departSpeed="10" />
    <vehicle id="N_W_267" type="Bike" route="S_W" depart="689.0" departLane="random" departSpeed="10" />
    <vehicle id="N_W_268" type="Bike" route="S_W" depart="690.0" departLane="random" departSpeed="10" />
    <vehicle id="W_E_269" type="Car" route="W_E" depart="693.0" departLane="random" departSpeed="10" />
    <vehicle id="E_W_270" type="Bike" route="E_W" depart="693.0" departLane="random" departSpeed="10" />
    <vehicle id="W_E_271" type="Bike" route="W_E" depart="693.0" departLane="random" departSpeed="10" />
    <vehicle id="S_N_272" type="Auto" route="S_N" depart="694.0" departLane="random" departSpeed="10" />
    <vehicle id="W_N_273" type="Bike" route="W_N" depart="697.0" departLane="random" departSpeed="10" />
    <vehicle id="N_W_274" type="Bus" route="S_W" depart="698.0" departLane="random" departSpeed="10" />