
            <routes>
                <vType guiShape="passenger/hatchback" accel="1.0" decel="4.0" id="Car" color="white" width="2.5" length="4.0" minGap="1.0" maxSpeed="80.0" sigma="0.2"/>
                <vType guiShape="bus" accel="0.5" decel="5.0" id="Bus" color="blue" width="3.5" length="6.0" minGap="1.0" maxSpeed="40.0" sigma="0.3"/>
                <vType guiShape="motorcycle" accel="1.0" decel="4.0" id="Bike" color="green" width="1.5" length="2.0" minGap="1.0" maxSpeed="60.0" sigma="0.6"/>
                <vType guiShape="evehicle" accel="1.0" decel="4.0" id="Auto" color="yellow" width="2.0" length="3.0" minGap="1.0" maxSpeed="50.0" sigma="0.6"/>
                
                <route id="W_N" edges="W2TL TL2N"/>
                <route id="W_E" edges="W2TL TL2E"/>
                <route id="W_S" edges="W2TL TL2S"/>
                <route id="N_W" edges="N2TL TL2W"/>
                <route id="N_E" edges="N2TL TL2E"/>
                <route id="N_S" edges="N2TL TL2S"/>
                <route id="E_W" edges="E2TL TL2W"/>
                <route id="E_N" edges="E2TL TL2N"/>
                <route id="E_S" edges="E2TL TL2S"/>
                <route id="S_W" edges="S2TL TL2W"/>
                <route id="S_N" edges="S2TL TL2N"/>
                <route id="S_E" edges="S2TL TL2E"/>
    <vehicle id="W_N_0" type="Auto" route="W_N" depart="33.0" departLane="random" departSpeed="10" />
    <vehicle id="W_N_1" type="Bike" route="W_N" depart="44.0" departLane="random" departSpeed="10" />
    <vehicle id="N_E_2" type="Bike" route="N_E" depart="55.0" departLane="random" departSpeed="10" />
    <vehicle id="N_S_3" type="Car" route="N_S" depart="72.0" departLane="random" departSpeed="10" />
    <vehicle id="W_S_4" type="Car" route="E_S" depart="78.0" departLane="random" departSpeed="10" />
    <vehicle id="E_W_5" type="Bike" route="E_W" depart="81.0" departLane="random" departSpeed="10" />
    <vehicle id="W_E_6" type="Auto" route="W_E" depart="91.0" departLane="random" departSpeed="10" />
    <vehicle id="S_N_7" type="Auto" route="S_N" depart="95.0" departLane="random" departSpeed="10" />
    <vehicle id="E_W_8" type="Car" route="E_W" depart="98.0" departLane="random" departSpeed="10" />
    <vehicle id="N_W_9" type="Car" route="S_W" depart="98.0" departLane="random" departSpeed="10" />
    <vehicle id="W_E_10" type="Bike" route="W_E" depart="103.0" departLane="random" departSpeed="10" />
    <vehicle id="W_E_11" type="Bike" route="W_E" depart="106.0" departLane="random" departSpeed="10" />
    <vehicle id="N_S_12" type="Car" route="N_S" depart="108.0" departLane="random" departSpeed="10" />
    <vehicle id="E_N_13" type="Auto" route="E_N" depart="119.0" departLane="random" departSpeed="10" />
    <vehicle id="S_W_14" type="Bus" route="N_W" depart="136.0" departLane="random" departSpeed="10" />
    <vehicle id="W_N_15" type="Car" route="W_N" depart="138.0" departLane="random" departSpeed="10" />
    <vehicle id="W_N_16" type="Bike" route="W_N" depart="142.0" departLane="random" departSpeed="10" />
    <vehicle id="W_N_17" type="Bike" route="W_N" depart="143.0" departLane="random" departSpeed="10" />
    <vehicle id="W_E_18" type="Auto" route="W_E" depart="146.0" departLane="random" departSpeed="10" />
    <vehicle id="N_S_19" type="Bike" route="N_S" depart="148.0" departLane="random" departSpeed="10" />
    <vehicle id="W_N_20" type="Bike" route="W_N" depart="151.0" departLane="random" departSpeed="10" />
    <vehicle id="S_N_21" type="Bike" route="S_N" depart="152.0" departLane="random" departSpeed="10" />
    <vehicle id="E_W_22" type="Bike" route="E_W" depart="154.0" departLane="random" departSpeed="10" />
    <vehicle id="E_W_23" type="Bike" route="E_W" depart="160.0" departLane="random" departSpeed="10" />
    <vehicle id="W_E_24" type="Auto" route="W_E" depart="162.0" departLane="random" departSpeed="10" />
    <vehicle id="N_S_25" type="Car" route="N_S" depart="163.0" departLane="random" departSpeed="10" />
    <vehicle id="N_W_26" type="Auto" route="S_W" depart="164.0" departLane="random" departSpeed="10" />
    <vehicle id="E_W_27" type="Car" route="E_W" depart="165.0" departLane="random" departSpeed="10" />
    <vehicle id="W_N_28" type="Bike" route="W_N" depart="166.0" departLane="random" departSpeed="10" />
    <vehicle id="E_N_29" type="Auto" route="E_N" depart="170.0" departLane="random" departSpeed="10" />
    <vehicle id="N_S_30" type="Bike" route="N_S" depart="171.0" departLane="random" departSpeed="10" />
    <vehicle id="N_W_31" type="Auto" route="S_W" depart="176.0" departLane="random" departSpeed="10" />
    <vehicle id="E_W_32" type="Bike" route="E_W" depart="177.0" departLane="random" departSpeed="10" />
    <vehicle id="W_S_33" type="Bike" route="E_S" depart="177.0" departLane="random" departSpeed="10" />
    <vehicle id="E_W_34" type="Bike" route="E_W" depart="177.0" departLane="random" departSpeed="10" />
    <vehicle id="W_E_35" type="Car" route="W_E" depart="180.0" departLane="random" departSpeed="10" />
    <vehicle id="N_S_36" type="Car" route="N_S" depart="182.0" departLane="random" departSpeed="10" />
    <vehicle id="W_N_37" type="Bike" route="W_N" depart="183.0" departLane="random" departSpeed="10" />
    <vehicle id="W_E_38" type="Car" route="W_E" depart="184.0" departLane="random" departSpeed="10" />
    <vehicle id="S_E_39" type="Bike" route="S_E" depart="187.0" departLane="random" departSpeed="10" />
    <vehicle id="W_E_40" type="Bike" route="W_E" depart="189.0" departLane="random" departSpeed="10" />
    <vehicle id="S_N_41" type="Bike" route="S_N" depart="189.0" departLane="random" departSpeed="10" />
    <vehicle id="E_N_42" type="Car" route="E_N" depart="189.0" departLane="random" departSpeed="10" />
    <vehicle id="E_W_43" type="Bike" route="E_W" depart="193.0" departLane="random" departSpeed="10" />
    <vehicle id="W_N_44" type="Bike" route="W_N" depart="193.0" departLane="random" departSpeed="10" />
    <vehicle id="N_E_45" type="Bike" route="N_E" depart="203.0" departLane="random" departSpeed="10" />
    <vehicle id="S_W_46" type="Car" route="N_W" depart="209.0" departLane="random" departSpeed="10" />
    <vehicle id="W_E_47" type="Car" route="W_E" depart="211.0" departLane="random" departSpeed="10" />
    <vehicle id="W_E_48" type="Bus" route="W_E" depart="212.0" departLane="random" departSpeed="10" />
    <vehicle id="N_E_49" type="Bike" route="N_E" depart="214.0" departLane="random" departSpeed="10" />
    <vehicle id="W_S_50" type="Car" route="E_S" depart="217.0" departLane="random" departSpeed="10" />
    <vehicle id="E_W_51" type="Bike" route="E_W" depart="217.0" departLane="random" departSpeed="10" />
    <vehicle id="E_W_52" type="Auto" route="E_W" depart="219.0" departLane="random" departSpeed="10" />
    <vehicle id="S_W_53" type="Car" route="N_W" depart="222.0" departLane="random" departSpeed="10" />
    <vehicle id="W_S_54" type="Bus" route="E_S" depart="225.0" departLane="random" departSpeed="10" />
    <vehicle id="N_W_55" type="Car" route="S_W" depart="227.0" departLane="random" departSpeed="10" />
    <vehicle id="W_S_56" type="Bus" route="E_S" depart="233.0" departLane="random" departSpeed="10" />
    <vehicle id="E_N_57" type="Bike" route="E_N" depart="237.0" departLane="random" departSpeed="10" />
    <vehicle id="W_E_58" type="Bike" route="W_E" depart="238.0" departLane="random" departSpeed="10" />
    <vehicle id="W_S_59" type="Bike" route="E_S" depart="240.0" departLane="random" departSpeed="10" />
    <vehicle id="W_S_60" type="Car" route="E_S" depart="242.0" departLane="random" departSpeed="10" />
    <vehicle id="N_W_61" type="Car" route="S_W" depart="244.0" departLane="random" departSpeed="10" />
    <vehicle id="S_N_62" type="Bike" route="S_N" depart="245.0" departLane="random" departSpeed="10" />
    <vehicle id="S_N_63" type="Auto" route="S_N" depart="247.0" departLane="random" departSpeed="10" />
    <vehicle id="N_W_64" type="Bike" route="S_W" depart="247.0" departLane="random" departSpeed="10" />
    <vehicle id="N_S_65" type="Bike" route="N_S" depart="248.0" departLane="random" departSpeed="10" />
    <vehicle id="W_S_66" type="Car" route="E_S" depart="249.0" departLane="random" departSpeed="10" />
    <vehicle id="S_E_67" type="Bike" route="S_E" depart="249.0" departLane="random" departSpeed="10" />
    <vehicle id="N_S_68" type="Bike" route="N_S" depart="250.0" departLane="random" departSpeed="10" />
    <vehicle id="W_N_69" type="Car" route="W_N" depart="255.0" departLane="random" departSpeed="10" />
    <vehicle id="E_W_70" type="Bike" route="E_W" depart="256.0" departLane="random" departSpeed="10" />
    <vehicle id="N_E_71" type="Bike" route="N_E" depart="256.0" departLane="random" departSpeed="10" />
    <vehicle id="S_N_72" type="Car" route="S_N" depart="257.0" departLane="random" departSpeed="10" />
    <vehicle id="N_E_73" type="Car" route="N_E" depart="258.0" departLane="random" departSpeed="10" />
    <vehicle id="W_S_74" type="Bus" route="E_S" depart="258.0" departLane="random" departSpeed="10" />
    <vehicle id="E_W_75" type="Car" route="E_W" depart="259.0" departLane="random" departSpeed="10" />
    <vehicle id="N_E_76" type="Car" route="N_E" depart="261.0" departLane="random" departSpeed="10" />
    <vehicle id="W_S_77" type="Bike" route="E_S" depart="263.0" departLane="random" departSpeed="10" />
    <vehicle id="N_E_78" type="Bike" route="N_E" depart="269.0" departLane="random" departSpeed="10" />
    <vehicle id="W_N_79" type="Bus" route="W_N" depart="269.0" departLane="random" departSpeed="10" />
    <vehicle id="N_E_80" type="Bike" route="N_E" depart="269.0" departLane="random" departSpeed="10" />
    <vehicle id="N_W_81" type="Auto" route="S_W" depart="270.0" departLane="random" departSpeed="10" />
    <vehicle id="N_E_82" type="Car" route="N_E" depart="271.0" departLane="random" departSpeed="10" />
    <vehicle id="E_W_83" type="Bike" route="E_W" depart="274.0" departLane="random" departSpeed="10" />
    <vehicle id="W_E_84" type="Bike" route="W_E" depart="275.0" departLane="random" departSpeed="10" />
    <vehicle id="W_N_85" type="Bus" route="W_N" depart="276.0" departLane="random" departSpeed="10" />
    <vehicle id="W_E_86" type="Bike" route="W_E" depart="276.0" departLane="random" departSpeed="10" />
    <vehicle id="E_S_87" type="Car" route="W_S" depart="277.0" departLane="random" departSpeed="10" />
    <vehicle id="N_W_88" type="Bus" route="S_W" depart="277.0" departLane="random" departSpeed="10" />
    <vehicle id="N_E_89" type="Bike" route="N_E" depart="278.0" departLane="random" departSpeed="10" />
    <vehicle id="W_E_90" type="Bike" route="W_E" depart="279.0" departLane="random" departSpeed="10" />
    <vehicle id="N_S_91" type="Bike" route="N_S" depart="279.0" departLane="random" departSpeed="10" />
    <vehicle id="W_E_92" type="Bike" route="W_E" depart="284.0" departLane="random" departSpeed="10" />
    <vehicle id="W_N_93" type="Bike" route="W_N" depart="287.0" departLane="random" departSpeed="10" />
    <vehicle id="E_W_94" type="Bike" route="E_W" depart="288.0" departLane="random" departSpeed="10" />
    <vehicle id="N_S_95" type="Car" route="N_S" depart="290.0" departLane="random" departSpeed="10" />
    <vehicle id="W_N_96" type="Bike" route="W_N" depart="293.0" departLane="random" departSpeed="10" />
    <vehicle id="W_S_97" type="Auto" route="E_S" depart="296.0" departLane="random" departSpeed="10" />
    <vehicle id="W_S_98" type="Bike" route="E_S" depart="298.0" departLane="random" departSpeed="10" />
    <vehicle id="W_N_99" type="Auto" route="W_N" depart="299.0" departLane="random" departSpeed="10" />
    <vehicle id="W_N_100" type="Bike" route="W_N" depart="299.0" departLane="random" departSpeed="10" />
    <vehicle id="W_N_101" type="Bike" route="W_N" depart="301.0" departLane="random" departSpeed="10" />
    <vehicle id="W_S_102" type="Auto" route="E_S" depart="301.0" departLane="random" departSpeed="10" />
    <vehicle id="W_E_103" type="Bike" route="W_E" depart="301.0" departLane="random" departSpeed="10" />
    <vehicle id="N_S_104" type="Car" route="N_S" depart="302.0" departLane="random" departSpeed="10" />
    <vehicle id="W_E_105" type="Car" route="W_E" depart="302.0" departLane="random" departSpeed="10" />
    <vehicle id="E_N_106" type="Bike" route="E_N" depart="304.0" departLane="random" departSpeed="10" />
    <vehicle id="N_W_107" type="Bike" route="S_W" depart="310.0" departLane="random" departSpeed="10" />
    <vehicle id="N_E_108" type="Bike" route="N_E" depart="310.0" departLane="random" departSpeed="10" />
    <vehicle id="N_W_109" type="Bike" route="S_W" depart="310.0" departLane="random" departSpeed="10" />
    <vehicle id="N_E_110" type="Bike" route="N_E" depart="310.0" departLane="random" departSpeed="10" />
    <vehicle id="W_N_111" type="Car" route="W_N" depart="312.0" departLane="random" departSpeed="10" />
    <vehicle id="N_E_112" type="Bike" route="N_E" depart="313.0" departLane="random" departSpeed="10" />
    <vehicle id="N_E_113" type="Car" route="N_E" depart="313.0" departLane="random" departSpeed="10" />
    <vehicle id="N_E_114" type="Car" route="N_E" depart="314.0" departLane="random" departSpeed="10" />
    <vehicle id="W_N_115" type="Bike" route="W_N" depart="315.0" departLane="random" departSpeed="10" />
    <vehicle id="N_W_116" type="Auto" route="S_W" depart="316.0" departLane="random" departSpeed="10" />
    <vehicle id="W_S_117" type="Car" route="E_S" depart="316.0" departLane="random" departSpeed="10" />
    <vehicle id="N_S_118" type="Bike" route="N_S" depart="317.0" departLane="random" departSpeed="10" />
    <vehicle id="E_S_119" type="Car" route="W_S" depart="318.0" departLane="random" departSpeed="10" />
    <vehicle id="W_S_120" type="Bike" route="E_S" depart="319.0" departLane="random" departSpeed="10" />
    <vehicle id="W_N_121" type="Bike" route="W_N" depart="320.0" departLane="random" departSpeed="10" />
    <vehicle id="N_W_122" type="Car" route="S_W" depart="320.0" departLane="random" departSpeed="10" />
    <vehicle id="N_E_123" type="Bike" route="N_E" depart="321.0" departLane="random" departSpeed="10" />
    <vehicle id="S_E_124" type="Bike" route="S_E" depart="324.0" departLane="random" departSpeed="10" />
    <vehicle id="E_S_125" type="Auto" route="W_S" depart="324.0" departLane="random" departSpeed="10" />
    <vehicle id="N_S_126" type="Bike" route="N_S" depart="328.0" departLane="random" departSpeed="10" />
    <vehicle id="W_N_127" type="Auto" route="W_N" depart="329.0" departLane="random" departSpeed="10" />
    <vehicle id="E_W_128" type="Car" route="E_W" depart="330.0" departLane="random" departSpeed="10" />
    <vehicle id="W_E_129" type="Bike" route="W_E" depart="330.0" departLane="random" departSpeed="10" />
    <vehicle id="W_N_130" type="Car" route="W_N" depart="331.0" departLane="random" departSpeed="10" />
    <vehicle id="W_E_131" type="Bike" route="W_E" depart="332.0" departLane="random" departSpeed="10" />
    <vehicle id="N_S_132" type="Bike" route="N_S" depart="332.0" departLane="random" departSpeed="10" />
    <vehicle id="W_E_133" type="Car" route="W_E" depart="333.0" departLane="random" departSpeed="10" />
    <vehicle id="N_S_134" type="Auto" route="N_S" depart="334.0" departLane="random" departSpeed="10" />
    <vehicle id="N_E_135" type="Bike" route="N_E" depart="336.0" departLane="random" departSpeed="10" />
    <vehicle id="W_E_136" type="Auto" route="W_E" depart="336.0" departLane="random" departSpeed="10" />
    <vehicle id="W_N_137" type="Car" route="W_N" depart="336.0" departLane="random" departSpeed="10" />
    <vehicle id="S_N_138" type="Car" route="S_N" depart="339.0" departLane="random" departSpeed="10" />
    <vehicle id="N_W_139" type="Bike" route="S_W" depart="339.0" departLane="random" departSpeed="10" />
    <vehicle id="E_W_140" type="Car" route="E_W" depart="340.0" departLane="random" departSpeed="10" />
    <vehicle id="W_N_141" type="Bike" route="W_N" depart="340.0" departLane="random" departSpeed="10" />
    <vehicle id="N_W_142" type="Car" route="S_W" depart="341.0" departLane="random" departSpeed="10" />
    <vehicle id="N_W_143" type="Car" route="S_W" depart="342.0" departLane="random" departSpeed="10" />
    <vehicle id="W_E_144" type="Bike" route="W_E" depart="342.0" departLane="random" departSpeed="10" />
    <vehicle id="S_W_145" type="Car" route="N_W" depart="344.0" departLane="random" departSpeed="10" />
    <vehicle id="W_N_146" type="Car" route="W_N" depart="344.0" departLane="random" departSpeed="10" />
    <vehicle id="W_S_147" type="Bus" route="E_S" depart="345.0" departLane="random" departSpeed="10" />
    <vehicle id="W_S_148" type="Auto" route="E_S" depart="345.0" departLane="random" departSpeed="10" />
    <vehicle id="W_N_149" type="Bike" route="W_N" depart="346.0" departLane="random" departSpeed="10" />
    <vehicle id="N_S_150" type="Car" route="N_S" depart="346.0" departLane="random" departSpeed="10" />
    <vehicle id="N_E_151" type="Car" route="N_E" depart="351.0" departLane="random" departSpeed="10" />
    <vehicle id="S_N_152" type="Car" route="S_N" depart="352.0" departLane="random" departSpeed="10" />
    <vehicle id="E_W_153" type="Bike" route="E_W" depart="353.0" departLane="random" departSpeed="10" />
    <vehicle id="S_N_154" type="Car" route="S_N" depart="356.0" departLane="random" departSpeed="10" />
    <vehicle id="N_W_155" type="Bike" route="S_W" depart="356.0" departLane="random" departSpeed="10" />
    <vehicle id="N_W_156" type="Bike" route="S_W" depart="357.0" departLane="random" departSpeed="10" />
    <vehicle id="N_W_157" type="Car" route="S_W" depart="358.0" departLane="random" departSpeed="10" />
    <vehicle id="W_E_158" type="Bike" route="W_E" depart="358.0" departLane="random" departSpeed="10" />
    <vehicle id="N_E_159" type="Bike" route="N_E" depart="359.0" departLane="random" departSpeed="10" />
    <vehicle id="N_S_160" type="Bus" route="N_S" depart="359.0" departLane="random" departSpeed="10" />
    <vehicle id="N_E_161" type="Bike" route="N_E" depart="361.0" departLane="random" departSpeed="10" />
    <vehicle id="W_N_162" type="Auto" route="W_N" depart="361.0" departLane="random" departSpeed="10" />
    <vehicle id="W_S_163" type="Bike" route="E_S" depart="363.0" departLane="random" departSpeed="10" />
    <vehicle id="W_E_164" type="Bike" route="W_E" depart="367.0" departLane="random" departSpeed="10" />
    <vehicle id="N_E_165" type="Bike" route="N_E" depart="367.0" departLane="random" departSpeed="10" />
    <vehicle id="W_E_166" type="Bike" route="W_E" depart="368.0" departLane="random" departSpeed="10" />
    <vehicle id="W_E_167" type="Bike" route="W_E" depart="368.0" departLane="random" departSpeed="10" />
    <vehicle id="N_E_168" type="Bike" route="N_E" depart="369.0" departLane="random" departSpeed="10" />
    <vehicle id="S_W_169" type="Bike" route="N_W" depart="370.0" departLane="random" departSpeed="10" />
    <vehicle id="W_N_170" type="Auto" route="W_N" depart="373.0" departLane="random" departSpeed="10" />
    <vehicle id="N_W_171" type="Bike" route="S_W" depart="373.0" departLane="random" departSpeed="10" />
    <vehicle id="N_E_172" type="Bike" route="N_E" depart="375.0" departLane="random" departSpeed="10" />
    <vehicle id="N_E_173" type="Bike" route="N_E" depart="375.0" departLane="random" departSpeed="10" />
    <vehicle id="N_E_174" type="Bike" route="N_E" depart="376.0" departLane="random" departSpeed="10" />
    <vehicle id="W_N_175" type="Bike" route="W_N" depart="377.0" departLane="random" departSpeed="10" />
    <vehicle id="N_W_176" type="Bike" route="S_W" depart="379.0" departLane="random" departSpeed="10" />
    <vehicle id="E_N_177" type="Bike" route="E_N" depart="380.0" departLane="random" departSpeed="10" />
    <vehicle id="S_W_178" type="Bike" route="N_W" depart="382.0" departLane="random" departSpeed="10" />
    <vehicle id="E_W_179" type="Bike" route="E_W" depart="384.0" departLane="random" departSpeed="10" />
    <vehicle id="W_E_180" type="Auto" route="W_E" depart="386.0" departLane="random" departSpeed="10" />
    <vehicle id="N_E_181" type="Bike" route="N_E" depart="387.0" departLane="random" departSpeed="10" />
    <vehicle id="S_N_182" type="Car" route="S_N" depart="388.0" departLane="random" departSpeed="10" />
    <vehicle id="N_E_183" type="Bike" route="N_E" depart="388.0" departLane="random" departSpeed="10" />
    <vehicle id="N_S_184" type="Bike" route="N_S" depart="390.0" departLane="random" departSpeed="10" />
    <vehicle id="S_N_185" type="Bike" route="S_N" depart="390.0" departLane="random" departSpeed="10" />
    <vehicle id="S_E_186" type="Bike" route="S_E" depart="390.0" departLane="random" departSpeed="10" />
    <vehicle id="W_S_187" type="Car" route="E_S" depart="391.0" departLane="random" departSpeed="10" />
    <vehicle id="N_E_188" type="Bike" route="N_E" depart="394.0" departLane="random" departSpeed="10" />
    <vehicle id="W_N_189" type="Bus" route="W_N" depart="395.0" departLane="random" departSpeed="10" />
    <vehicle id="N_E_190" type="Bike" route="N_E" depart="395.0" departLane="random" departSpeed="10" />
    <vehicle id="N_S_191" type="Auto" route="N_S" depart="396.0" departLane="random" departSpeed="10" />
    <vehicle id="E_N_192" type="Car" route="E_N" depart="399.0" departLane="random" departSpeed="10" />
    <vehicle id="S_N_193" type="Auto" route="S_N" depart="401.0" departLane="random" departSpeed="10" />
    <vehicle id="N_S_194" type="Bike" route="N_S" depart="403.0" departLane="random" departSpeed="10" />
    <vehicle id="E_N_195" type="Bus" route="E_N" depart="404.0" departLane="random" departSpeed="10" />
    <vehicle id="S_N_196" type="Bike" route="S_N" depart="405.0" departLane="random" departSpeed="10" />
    <vehicle id="W_N_197" type="Bike" route="W_N" depart="406.0" departLane="random" departSpeed="10" />
    <vehicle id="N_E_198" type="Bike" route="N_E" depart="406.0" departLane="random" departSpeed="10" />
    <vehicle id="N_E_199" type="Auto" route="N_E" depart="406.0" departLane="random" departSpeed="10" />
    <vehicle id="N_W_200" type="Bike" route="S_W" depart="408.0" departLane="random" departSpeed="10" />
    <vehicle id="W_S_201" type="Bike" route="E_S" depart="411.0" departLane="random" departSpeed="10" />
    <vehicle id="S_E_202" type="Bike" route="S_E" depart="411.0" departLane="random" departSpeed="10" />
    <vehicle id="N_E_203" type="Auto" route="N_E" depart="411.0" departLane="random" departSpeed="10" />
    <vehicle id="S_N_204" type="Bike" route="S_N" depart="416.0" departLane="random" departSpeed="10" />
    <vehicle id="W_N_205" type="Bike" route="W_N" depart="419.0" departLane="random" departSpeed="10" />
    <vehicle id="S_N_206" type="Car" route="S_N" depart="421.0" departLane="random" departSpeed="10" />
    <vehicle id="E_W_207" type="Car" route="E_W" depart="422.0" departLane="random" departSpeed="10" />
    <vehicle id="W_E_208" type="Bus" route="W_E" depart="424.0" departLane="random" departSpeed="10" />
    <vehicle id="W_S_209" type="Bike" route="E_S" depart="424.0" departLane="random" departSpeed="10" />
    <vehicle id="E_W_210" type="Bike" route="E_W" depart="425.0" departLane="random" departSpeed="10" />
    <vehicle id="E_W_211" type="Auto" route="E_W" depart="426.0" departLane="random" departSpeed="10" />
    <vehicle id="N_S_212" type="Bus" route="N_S" depart="428.0" departLane="random" departSpeed="10" />
    <vehicle id="N_E_213" type="Auto" route="N_E" depart="429.0" departLane="random" departSpeed="10" />
    <vehicle id="W_N_214" type="Bike" route="W_N" depart="430.0" departLane="random" departSpeed="10" />
    <vehicle id="W_S_215" type="Bike" route="E_S" depart="430.0" departLane="random" departSpeed="10" />
    <vehicle id="E_W_216" type="Car" route="E_W" depart="433.0" departLane="random" departSpeed="10" />
    <vehicle id="E_N_217" type="Auto" route="E_N" depart="434.0" departLane="random" departSpeed="10" />
    <vehicle id="S_E_218" type="Auto" route="S_E" depart="436.0" departLane="random" departSpeed="10" />
    <vehicle id="W_E_219" type="Bike" route="W_E" depart="436.0" departLane="random" departSpeed="10" />
    <vehicle id="N_E_220" type="Bus" route="N_E" depart="437.0" departLane="random" departSpeed="10" />
    <vehicle id="N_E_221" type="Bus" route="N_E" depart="437.0" departLane="random" departSpeed="10" />
    <vehicle id="E_N_222" type="Car" route="E_N" depart="437.0" departLane="random" departSpeed="10" />
    <vehicle id="N_W_223" type="Auto" route="S_W" depart="437.0" departLane="random" departSpeed="10" />
    <vehicle id="S_N_224" type="Auto" route="S_N" depart="438.0" departLane="random" departSpeed="10" />
    <vehicle id="W_S_225" type="Bike" route="E_S" depart="438.0" departLane="random" departSpeed="10" />
    <vehicle id="N_E_226" type="Bike" route="N_E" depart="438.0" departLane="random" departSpeed="10" />
    <vehicle id="N_S_227" type="Bike" route="N_S" depart="438.0" departLane="random" departSpeed="10" />
    <vehicle id="N_W_228" type="Car" route="S_W" depart="439.0" departLane="random" departSpeed="10" />
    <vehicle id="S_N_229" type="Bus" route="S_N" depart="440.0" departLane="random" departSpeed="10" />
    <vehicle id="S_W_230" type="Bus" route="N_W" depart="440.0" departLane="random" departSpeed="10" />
    <vehicle id="W_N_231" type="Bus" route="W_N" depart="441.0" departLane="random" departSpeed="10" />
    <vehicle id="E_W_232" type="Auto" route="E_W" depart="442.0" departLane="random" departSpeed="10" />
    <vehicle id="S_N_233" type="Auto" route="S_N" depart="442.0" departLane="random" departSpeed="10" />
    <vehicle id="S_N_234" type="Bike" route="S_N" depart="443.0" departLane="random" departSpeed="10" />
    <vehicle id="E_W_235" type="Car" route="E_W" depart="445.0" departLane="random" departSpeed="10" />
    <vehicle id="W_N_236" type="Bike" route="W_N" depart="446.0" departLane="random" departSpeed="10" />
    <vehicle id="W_E_237" type="Bike" route="W_E" depart="447.0" departLane="random" departSpeed="10" />
    <vehicle id="S_N_238" type="Auto" route="S_N" depart="447.0" departLane="random" departSpeed="10" />
    <vehicle id="W_N_239" type="Car" route="W_N" depart="447.0" departLane="random" departSpeed="10" />
    <vehicle id="S_E_240" type="Auto" route="S_E" depart="449.0" departLane="random" departSpeed="10" />
    <vehicle id="S_E_241" type="Bike" route="S_E" depart="449.0" departLane="random" departSpeed="10" />
    <vehicle id="N_E_242" type="Bike" route="N_E" depart="452.0" departLane="random" departSpeed="10" />
    <vehicle id="E_W_243" type="Car" route="E_W" depart="453.0" departLane="random" departSpeed="10" />
    <vehicle id="E_W_244" type="Car" route="E_W" depart="453.0" departLane="random" departSpeed="10" />
    <vehicle id="S_N_245" type="Bike" route="S_N" depart="455.0" departLane="random" departSpeed="10" />
    <vehicle id="W_S_246" type="Bike" route="E_S" depart="455.0" departLane="random" departSpeed="10" />
    <vehicle id="N_E_247" type="Car" route="N_E" depart="456.0" departLane="random" departSpeed="10" />
    <vehicle id="W_E_248" type="Bike" route="W_E" depart="457.0" departLane="random" departSpeed="10" />
    <vehicle id="E_W_249" type="Bike" route="E_W" depart="460.0" departLane="random" departSpeed="10" />
    <vehicle id="W_N_250" type="Auto" route="W_N" depart="462.0" departLane="random" departSpeed="10" />
    <vehicle id="W_N_251" type="Bike" route="W_N" depart="463.0" departLane="random" departSpeed="10" />
    <vehicle id="N_W_252" type="Bike" route="S_W" depart="463.0" departLane="random" departSpeed="10" />
    <vehicle id="W_S_253" type="Auto" route="E_S" depart="465.0" departLane="random" departSpeed="10" />
    <vehicle id="W_S_254" type="Bike" route="E_S" depart="466.0" departLane="random" departSpeed="10" />
    <vehicle id="S_N_255" type="Auto" route="S_N" depart="466.0" departLane="random" departSpeed="10" />
    <vehicle id="E_W_256" type="Bike" route="E_W" depart="466.0" departLane="random" departSpeed="10" />
    <vehicle id="E_N_257" type="Bike" route="E_N" depart="467.0" departLane="random" departSpeed="10" />
    <vehicle id="W_E_258" type="Auto" route="W_E" depart="469.0" departLane="random" departSpeed="10" />
    <vehicle id="E_W_259" type="Auto" route="E_W" depart="471.0" departLane="random" departSpeed="10" />
    <vehicle id="N_S_260" type="Car" route="N_S" depart="472.0" departLane="random" departSpeed="10" />
    <vehicle id="N_W_261" type="Bike" route="S_W" depart="472.0" departLane="random" departSpeed="10" />
    <vehicle id="E_N_262" type="Bike" route="E_N" depart="472.0" departLane="random" departSpeed="10" />
    <vehicle id="W_S_263" type="Bike" route="E_S" depart="472.0" departLane="random" departSpeed="10" />
    <vehicle id="N_S_264" type="Car" route="N_S" depart="472.0" departLane="random" departSpeed="10" />
    <vehicle id="E_S_265" type="Bike" route="W_S" depart="473.0" departLane="random" departSpeed="10" />
    <vehicle id="N_E_266" type="Bike" route="N_E" depart="474.0" departLane="random" departSpeed="10" />
    <vehicle id="N_E_267" type="Car" route="N_E" depart="474.0" departLane="random" departSpeed="10" />
    <vehicle id="S_N_268" type="Bus" route="S_N" depart="475.0" departLane="random" departSpeed="10" />
    <vehicle id="W_E_269" type="Bike" route="W_E" depart="475.0" departLane="random" departSpeed="10" />
    <vehicle id="S_W_270" type="Car" route="N_W" depart="476.0" departLane="random" departSpeed="10" />
    <vehicle id="S_N_271" type="Car" route="S_N" depart="476.0" departLane="random" departSpeed="10" />
    <vehicle id="W_S_272" type="Car" route="E_S" depart="477.0" departLane="random" departSpeed="10" />
    <vehicle id="N_S_273" type="Car" route="N_S" depart="479.0" departLane="random" departSpeed="10" />
    <vehicle id="S_E_274" type="Bike" route="S_E" depart="479.0" departLane="random" departSpeed="10" />