
            <routes>
                <vType guiShape="passenger/hatchback" accel="1.0" decel="4.0" id="Car" color="white" width="2.5" length="4.0" minGap="1.0" maxSpeed="80.0" sigma="0.2"/>
                <vType guiShape="bus" accel="0.5" decel="5.0" id="Bus" color="blue" width="3.5" length="6.0" minGap="1.0" maxSpeed="40.0" sigma="0.3"/>
                <vType guiShape="motorcycle" accel="1.0" decel="4.0" id="Bike" color="green" width="1.5" length="2.0" minGap="1.0" maxSpeed="60.0" sigma="0.6"/>
                <vType guiShape="evehicle" accel="1.0" decel="4.0" id="Auto" color="yellow" width="2.0" length="3.0" minGap="1.0" maxSpeed="50.0" sigma="0.6"/>
                
                <route id="W_N" edges="W2TL TL2N"/>
                <route id="W_E" edges="W2TL TL2E"/>
                <route id="W_S" edges="W2TL TL2S"/>
                <route id="N_W" edges="N2TL TL2W"/>
                <route id="N_E" edges="N2TL TL2E"/>
                <route id="N_S" edges="N2TL TL2S"/>
                <route id="E_W" edges="E2TL TL2W"/>
                <route id="E_N" edges="E2TL TL2N"/>
                <route id="E_S" edges="E2TL TL2S"/>
                <route id="S_W" edges="S2TL TL2W"/>
                <route id="S_N" edges="S2TL TL2N"/>
                <route id="S_E" edges="S2TL TL2E"/>
    <vehicle id="W_E_0" type="Car" route="W_E" depart="24.0" departLane="random" departSpeed="10" />
    <vehicle id="W_E_1" type="Car" route="W_E" depart="52.0" departLane="random" departSpeed="10" />
    <vehicle id="N_E_2" type="Auto" route="N_E" depart="61.0" departLane="random" departSpeed="10" />
    <vehicle id="E_S_3" type="Bike" route="W_S" depart="62.0" departLane="random" departSpeed="10" />
    <vehicle id="E_S_4" type="Car" route="W_S" depart="67.0" departLane="random" departSpeed="10" />
    <vehicle id="W_E_5" type="Bike" route="W_E" depart="87.0" departLane="random" departSpeed="10" />
    <vehicle id="E_W_6" type="Bike" route="E_W" depart="96.0" departLane="random" departSpeed="10" />
    <vehicle id="W_N_7" type="Bike" route="W_N" depart="99.0" departLane="random" departSpeed="10" />
    <vehicle id="W_E_8" type="Car" route="W_E" depart="110.0" departLane="random" departSpeed="10" />
    <vehicle id="N_E_9" type="Bike" route="N_E" depart="151.0" departLane="random" departSpeed="10" />
    <vehicle id="W_E_10" type="Car" route="W_E" depart="152.0" departLane="random" departSpeed="10" />
    <vehicle id="W_E_11" type="Auto" route="W_E" depart="153.0" departLane="random" departSpeed="10" />
    <vehicle id="N_S_12" type="Bike" route="N_S" depart="155.0" departLane="random" departSpeed="10" />
    <vehicle id="W_N_13" type="Bike" route="W_N" depart="164.0" departLane="random" departSpeed="10" />
    <vehicle id="W_S_14" type="Bike" route="E_S" depart="172.0" departLane="random" departSpeed="10" />
    <vehicle id="W_E_15" type="Bike" route="W_E" depart="177.0" departLane="random" departSpeed="10" />
    <vehicle id="W_N_16" type="Bus" route="W_N" depart="178.0" departLane="random" departSpeed="10" />
    <vehicle id="N_W_17" type="Bike" route="S_W" depart="179.0" departLane="random" departSpeed="10" />
    <vehicle id="S_N_18" type="Auto" route="S_N" depart="189.0" departLane="random" departSpeed="10" />
    <vehicle id="N_E_19" type="Bike" route="N_E" depart="192.0" departLane="random" departSpeed="10" />
    <vehicle id="E_W_20" type="Auto" route="E_W" depart="195.0" departLane="random" departSpeed="10" />
    <vehicle id="S_W_21" type="Bike" route="N_W" depart="197.0" departLane="random" departSpeed="10" />
    <vehicle id="E_W_22" type="Car" route="E_W" depart="201.0" departLane="random" departSpeed="10" />
    <vehicle id="W_E_23" type="Bike" route="W_E" depart="201.0" departLane="random" departSpeed="10" />
    <vehicle id="E_S_24" type="Car" route="W_S" depart="206.0" departLane="random" departSpeed="10" />
    <vehicle id="N_W_25" type="Bike" route="S_W" depart="212.0" departLane="random" departSpeed="10" />
    <vehicle id="W_S_26" type="Bike" route="E_S" depart="212.0" departLane="random" departSpeed="10" />
    <vehicle id="N_W_27" type="Car" route="S_W" depart="213.0" departLane="random" departSpeed="10" />
    <vehicle id="W_E_28" type="Auto" route="W_E" depart="213.0" departLane="random" departSpeed="10" />
    <vehicle id="S_W_29" type="Bus" route="N_W" depart="215.0" departLane="random" departSpeed="10" />
    <vehicle id="E_W_30" type="Bike" route="E_W" depart="222.0" departLane="random" departSpeed="10" />
    <vehicle id="N_W_31" type="Bike" route="S_W" depart="222.0" departLane="random" departSpeed="10" />
    <vehicle id="W_N_32" type="Bike" route="W_N" depart="236.0" departLane="random" departSpeed="10" />
    <vehicle id="N_E_33" type="Bike" route="N_E" depart="238.0" departLane="random" departSpeed="10" />
    <vehicle id="E_W_34" type="Auto" route="E_W" depart="248.0" departLane="random" departSpeed="10" />
    <vehicle id="E_S_35" type="Bike" route="W_S" depart="254.0" departLane="random" departSpeed="10" />
    <vehicle id="N_E_36" type="Bike" route="N_E" depart="257.0" departLane="random" departSpeed="10" />
    <vehicle id="N_E_37" type="Auto" route="N_E" depart="261.0" departLane="random" departSpeed="10" />
    <vehicle id="N_E_38" type="Bus" route="N_E" depart="261.0" departLane="random" departSpeed="10" />
    <vehicle id="N_S_39" type="Bike" route="N_S" depart="264.0" departLane="random" departSpeed="10" />
    <vehicle id="E_N_40" type="Bike" route="E_N" depart="267.0" departLane="random" departSpeed="10" />
    <vehicle id="E_W_41" type="Bike" route="E_W" depart="269.0" departLane="random" departSpeed="10" />
    <vehicle id="E_W_42" type="Auto" route="E_W" depart="270.0" departLane="random" departSpeed="10" />
    <vehicle id="W_N_43" type="Bike" route="W_N" depart="271.0" departLane="random" departSpeed="10" />
    <vehicle id="N_W_44" type="Bike" route="S_W" depart="272.0" departLane="random" departSpeed="10" />
    <vehicle id="S_W_45" type="Bike" route="N_W" depart="273.0" departLane="random" departSpeed="10" />
    <vehicle id="N_W_46" type="Bike" route="S_W" depart="274.0" departLane="random" departSpeed="10" />
    <vehicle id="E_S_47" type="Bike" route="W_S" depart="277.0" departLane="random" departSpeed="10" />
    <vehicle id="S_W_48" type="Bike" route="N_W" depart="280.0" departLane="random" departSpeed="10" />
    <vehicle id="N_S_49" type="Bike" route="N_S" depart="282.0" departLane="random" departSpeed="10" />
    <vehicle id="W_N_50" type="Auto" route="W_N" depart="283.0" departLane="random" departSpeed="10" />
    <vehicle id="E_S_51" type="Bike" route="W_S" depart="285.0" departLane="random" departSpeed="10" />
    <vehicle id="W_S_52" type="Auto" route="E_S" depart="286.0" departLane="random" departSpeed="10" />
    <vehicle id="S_N_53" type="Bike" route="S_N" depart="290.0" departLane="random" departSpeed="10" />
    <vehicle id="W_E_54" type="Bike" route="W_E" depart="293.0" departLane="random" departSpeed="10" />
    <vehicle id="E_S_55" type="Auto" route="W_S" depart="293.0" departLane="random" departSpeed="10" />
    <vehicle id="E_N_56" type="Bike" route="E_N" depart="295.0" departLane="random" departSpeed="10" />
    <vehicle id="N_W_57" type="Bike" route="S_W" depart="295.0" departLane="random" departSpeed="10" />
    <vehicle id="S_W_58" type="Car" route="N_W" depart="296.0" departLane="random" departSpeed="10" />
    <vehicle id="N_S_59" type="Car" route="N_S" depart="299.0" departLane="random" departSpeed="10" />
    <vehicle id="N_S_60" type="Bike" route="N_S" depart="300.0" departLane="random" departSpeed="10" />
    <vehicle id="S_N_61" type="Auto" route="S_N" depart="301.0" departLane="random" departSpeed="10" />
    <vehicle id="N_E_62" type="Bike" route="N_E" depart="301.0" departLane="random" departSpeed="10" />
    <vehicle id="N_S_63" type="Bike" route="N_S" depart="309.0" departLane="random" departSpeed="10" />
    <vehicle id="S_W_64" type="Bus" route="N_W" depart="314.0" departLane="random" departSpeed="10" />
    <vehicle id="W_S_65" type="Car" route="E_S" depart="315.0" departLane="random" departSpeed="10" />
    <vehicle id="S_N_66" type="Bike" route="S_N" depart="315.0" departLane="random" departSpeed="10" />
    <vehicle id="S_N_67" type="Bike" route="S_N" depart="317.0" departLane="random" departSpeed="10" />
    <vehicle id="E_W_68" type="Auto" route="E_W" depart="321.0" departLane="random" departSpeed="10" />
    <vehicle id="W_N_69" type="Auto" route="W_N" depart="321.0" departLane="random" departSpeed="10" />
    <vehicle id="N_W_70" type="Bike" route="S_W" depart="322.0" departLane="random" departSpeed="10" />
    <vehicle id="S_E_71" type="Auto" route="S_E" depart="323.0" departLane="random" departSpeed="10" />
    <vehicle id="W_S_72" type="Car" route="E_S" depart="333.0" departLane="random" departSpeed="10" />
    <vehicle id="S_N_73" type="Bus" route="S_N" depart="333.0" departLane="random" departSpeed="10" />
    <vehicle id="W_S_74" type="Bike" route="E_S" depart="333.0" departLane="random" departSpeed="10" />
    <vehicle id="W_S_75" type="Car" route="E_S" depart="335.0" departLane="random" departSpeed="10" />
    <vehicle id="S_W_76" type="Car" route="N_W" depart="336.0" departLane="random" departSpeed="10" />
    <vehicle id="W_E_77" type="Auto" route="W_E" depart="337.0" departLane="random" departSpeed="10" />
    <vehicle id="S_N_78" type="Auto" route="S_N" depart="344.0" departLane="random" departSpeed="10" />
    <vehicle id="W_S_79" type="Auto" route="E_S" depart="359.0" departLane="random" departSpeed="10" />
    <vehicle id="E_W_80" type="Bike" route="E_W" depart="359.0" departLane="random" departSpeed="10" />
    <vehicle id="W_S_81" type="Car" route="E_S" depart="361.0" departLane="random" departSpeed="10" />
    <vehicle id="N_S_82" type="Bike" route="N_S" depart="363.0" departLane="random" departSpeed="10" />
    <vehicle id="E_S_83" type="Bike" route="W_S" depart="364.0" departLane="random" departSpeed="10" />
    <vehicle id="E_N_84" type="Bike" route="E_N" depart="366.0" departLane="random" departSpeed="10" />
    <vehicle id="N_W_85" type="Bike" route="S_W" depart="367.0" departLane="random" departSpeed="10" />
    <vehicle id="N_E_86" type="Bike" route="N_E" depart="374.0" departLane="random" departSpeed="10" />
    <vehicle id="W_S_87" type="Bike" route="E_S" depart="380.0" departLane="random" departSpeed="10" />
    <vehicle id="W_S_88" type="Car" route="E_S" depart="383.0" departLane="random" departSpeed="10" />
    <vehicle id="N_S_89" type="Bike" route="N_S" depart="387.0" departLane="random" departSpeed="10" />
    <vehicle id="S_N_90" type="Bike" route="S_N" depart="390.0" departLane="random" departSpeed="10" />
    <vehicle id="N_W_91" type="Bike" route="S_W" depart="391.0" departLane="random" departSpeed="10" />
    <vehicle id="N_E_92" type="Auto" route="N_E" depart="393.0" departLane="random" departSpeed="10" />
    <vehicle id="N_E_93" type="Auto" route="N_E" depart="395.0" departLane="random" departSpeed="10" />
    <vehicle id="E_W_94" type="Bike" route="E_W" depart="395.0" departLane="random" departSpeed="10" />
    <vehicle id="S_N_95" type="Bus" route="S_N" depart="400.0" departLane="random" departSpeed="10" />
    <vehicle id="W_S_96" type="Car" route="E_S" depart="402.0" departLane="random" departSpeed="10" />
    <vehicle id="S_W_97" type="Bus" route="N_W" depart="402.0" departLane="random" departSpeed="10" />
    <vehicle id="E_S_98" type="Auto" route="W_S" depart="403.0" departLane="random" departSpeed="10" />
    <vehicle id="W_E_99" type="Bike" route="W_E" depart="408.0" departLane="random" departSpeed="10" />
    <vehicle id="E_S_100" type="Bike" route="W_S" depart="409.0" departLane="random" departSpeed="10" />
    <vehicle id="E_N_101" type="Bike" route="E_N" depart="409.0" departLane="random" departSpeed="10" />
    <vehicle id="W_N_102" type="Bike" route="W_N" depart="410.0" departLane="random" departSpeed="10" />
    <vehicle id="S_E_103" type="Bike" route="S_E" depart="419.0" departLane="random" departSpeed="10" />
    <vehicle id="N_W_104" type="Auto" route="S_W" depart="419.0" departLane="random" departSpeed="10" />
    <vehicle id="W_E_105" type="Bike" route="W_E" depart="422.0" departLane="random" departSpeed="10" />
    <vehicle id="N_E_106" type="Bike" route="N_E" depart="424.0" departLane="random" departSpeed="10" />
    <vehicle id="W_N_107" type="Car" route="W_N" depart="424.0" departLane="random" departSpeed="10" />
    <vehicle id="E_W_108" type="Bike" route="E_W" depart="426.0" departLane="random" departSpeed="10" />
    <vehicle id="S_N_109" type="Car" route="S_N" depart="426.0" departLane="random" departSpeed="10" />
    <vehicle id="N_S_110" type="Auto" route="N_S" depart="428.0" departLane="random" departSpeed="10" />
    <vehicle id="W_E_111" type="Bus" route="W_E" depart="428.0" departLane="random" departSpeed="10" />
    <vehicle id="W_S_112" type="Auto" route="E_S" depart="429.0" departLane="random" departSpeed="10" />
    <vehicle id="S_W_113" type="Bus" route="N_W" depart="430.0" departLane="random" departSpeed="10" />
    <vehicle id="N_W_114" type="Auto" route="S_W" depart="430.0" departLane="random" departSpeed="10" />
    <vehicle id="N_E_115" type="Bike" route="N_E" depart="432.0" departLane="random" departSpeed="10" />
    <vehicle id="E_W_116" type="Bus" route="E_W" depart="434.0" departLane="random" departSpeed="10" />
    <vehicle id="W_E_117" type="Car" route="W_E" depart="435.0" departLane="random" departSpeed="10" />
    <vehicle id="S_N_118" type="Bike" route="S_N" depart="436.0" departLane="random" departSpeed="10" />
    <vehicle id="N_S_119" type="Bike" route="N_S" depart="437.0" departLane="random" departSpeed="10" />
    <vehicle id="N_W_120" type="Bike" route="S_W" depart="437.0" departLane="random" departSpeed="10" />
    <vehicle id="W_N_121" type="Bike" route="W_N" depart="437.0" departLane="random" departSpeed="10" />
    <vehicle id="N_W_122" type="Bike" route="S_W" depart="438.0" departLane="random" departSpeed="10" />
    <vehicle id="W_E_123" type="Car" route="W_E" depart="439.0" departLane="random" departSpeed="10" />
    <vehicle id="W_S_124" type="Car" route="E_S" depart="441.0" departLane="random" departSpeed="10" />
    <vehicle id="W_S_125" type="Bike" route="E_S" depart="443.0" departLane="random" departSpeed="10" />
    <vehicle id="N_E_126" type="Bike" route="N_E" depart="443.0" departLane="random" departSpeed="10" />
    <vehicle id="W_E_127" type="Bike" route="W_E" depart="444.0" departLane="random" departSpeed="10" />
    <vehicle id="S_N_128" type="Auto" route="S_N" depart="445.0" departLane="random" departSpeed="10" />
    <vehicle id="E_W_129" type="Bike" route="E_W" depart="445.0" departLane="random" departSpeed="10" />
    <vehicle id="W_E_130" type="Car" route="W_E" depart="449.0" departLane="random" departSpeed="10" />
    <vehicle id="E_W_131" type="Bike" route="E_W" depart="449.0" departLane="random" departSpeed="10" />
    <vehicle id="N_S_132" type="Bus" route="N_S" depart="450.0" departLane="random" departSpeed="10" />
    <vehicle id="N_E_133" type="Car" route="N_E" depart="452.0" departLane="random" departSpeed="10" />
    <vehicle id="E_N_134" type="Car" route="E_N" depart="454.0" departLane="random" departSpeed="10" />
    <vehicle id="E_W_135" type="Bike" route="E_W" depart="454.0" departLane="random" departSpeed="10" />
    <vehicle id="W_N_136" type="Bike" route="W_N" depart="455.0" departLane="random" departSpeed="10" />
    <vehicle id="W_E_137" type="Car" route="W_E" depart="456.0" departLane="random" departSpeed="10" />
    <vehicle id="S_N_138" type="Bus" route="S_N" depart="458.0" departLane="random" departSpeed="10" />
    <vehicle id="N_W_139" type="Bike" route="S_W" depart="461.0" departLane="random" departSpeed="10" />
    <vehicle id="S_N_140" type="Car" route="S_N" depart="463.0" departLane="random" departSpeed="10" />
    <vehicle id="E_N_141" type="Car" route="E_N" depart="463.0" departLane="random" departSpeed="10" />
    <vehicle id="E_W_142" type="Car" route="E_W" depart="467.0" departLane="random" departSpeed="10" />
    <vehicle id="N_S_143" type="Car" route="N_S" depart="468.0" departLane="random" departSpeed="10" />
    <vehicle id="W_N_144" type="Bus" route="W_N" depart="469.0" departLane="random" departSpeed="10" />
    <vehicle id="W_E_145" type="Car" route="W_E" depart="469.0" departLane="random" departSpeed="10" />
    <vehicle id="N_E_146" type="Bike" route="N_E" depart="472.0" departLane="random" departSpeed="10" />
    <vehicle id="W_N_147" type="Auto" route="W_N" depart="478.0" departLane="random" departSpeed="10" />
    <vehicle id="W_E_148" type="Bus" route="W_E" depart="478.0" departLane="random" departSpeed="10" />
    <vehicle id="N_E_149" type="Car" route="N_E" depart="481.0" departLane="random" departSpeed="10" />
    <vehicle id="N_W_150" type="Car" route="S_W" depart="483.0" departLane="random" departSpeed="10" />
    <vehicle id="N_E_151" type="Bike" route="N_E" depart="483.0" departLane="random" departSpeed="10" />
    <vehicle id="N_E_152" type="Car" route="N_E" depart="486.0" departLane="random" departSpeed="10" />
    <vehicle id="W_N_153" type="Bus" route="W_N" depart="493.0" departLane="random" departSpeed="10" />
    <vehicle id="E_N_154" type="Bike" route="E_N" depart="494.0" departLane="random" departSpeed="10" />
    <vehicle id="N_E_155" type="Bike" route="N_E" depart="495.0" departLane="random" departSpeed="10" />
    <vehicle id="E_W_156" type="Car" route="E_W" depart="495.0" departLane="random" departSpeed="10" />
    <vehicle id="N_S_157" type="Bus" route="N_S" depart="496.0" departLane="random" departSpeed="10" />
    <vehicle id="E_W_158" type="Car" route="E_W" depart="497.0" departLane="random" departSpeed="10" />
    <vehicle id="E_S_159" type="Car" route="W_S" depart="497.0" departLane="random" departSpeed="10" />
    <vehicle id="W_N_160" type="Auto" route="W_N" depart="497.0" departLane="random" departSpeed="10" />
    <vehicle id="S_N_161" type="Bike" route="S_N" depart="498.0" departLane="random" departSpeed="10" />
    <vehicle id="W_E_162" type="Bike" route="W_E" depart="499.0" departLane="random" departSpeed="10" />
    <vehicle id="W_N_163" type="Bike" route="W_N" depart="502.0" departLane="random" departSpeed="10" />
    <vehicle id="S_N_164" type="Bike" route="S_N" depart="505.0" departLane="random" departSpeed="10" />
    <vehicle id="W_E_165" type="Car" route="W_E" depart="506.0" departLane="random" departSpeed="10" />
    <vehicle id="S_N_166" type="Bike" route="S_N" depart="508.0" departLane="random" departSpeed="10" />
    <vehicle id="W_E_167" type="Bike" route="W_E" depart="509.0" departLane="random" departSpeed="10" />
    <vehicle id="E_N_168" type="Bike" route="E_N" depart="511.0" departLane="random" departSpeed="10" />
    <vehicle id="N_E_169" type="Bike" route="N_E" depart="511.0" departLane="random" departSpeed="10" />
    <vehicle id="W_N_170" type="Bike" route="W_N" depart="511.0" departLane="random" departSpeed="10" />
    <vehicle id="W_S_171" type="Bike" route="E_S" depart="513.0" departLane="random" departSpeed="10" />
    <vehicle id="W_E_172" type="Bike" route="W_E" depart="514.0" departLane="random" departSpeed="10" />
    <vehicle id="W_E_173" type="Bike" route="W_E" depart="519.0" departLane="random" departSpeed="10" />
    <vehicle id="W_N_174" type="Bike" route="W_N" depart="520.0" departLane="random" departSpeed="10" />
    <vehicle id="S_W_175" type="Bike" route="N_W" depart="522.0" departLane="random" departSpeed="10" />
    <vehicle id="N_S_176" type="Bike" route="N_S" depart="525.0" departLane="random" departSpeed="10" />
    <vehicle id="W_S_177" type="Auto" route="E_S" depart="526.0" departLane="random" departSpeed="10" />
    <vehicle id="S_N_178" type="Bike" route="S_N" depart="526.0" departLane="random" departSpeed="10" />
    <vehicle id="E_W_179" type="Bus" route="E_W" depart="531.0" departLane="random" departSpeed="10" />
    <vehicle id="N_S_180" type="Bus" route="N_S" depart="532.0" departLane="random" departSpeed="10" />
    <vehicle id="S_N_181" type="Car" route="S_N" depart="532.0" departLane="random" departSpeed="10" />
    <vehicle id="N_E_182" type="Bike" route="N_E" depart="533.0" departLane="random" departSpeed="10" />
    <vehicle id="N_E_183" type="Bike" route="N_E" depart="534.0" departLane="random" departSpeed="10" />
    <vehicle id="W_N_184" type="Car" route="W_N" depart="535.0" departLane="random" departSpeed="10" />
    <vehicle id="E_N_185" type="Bike" route="E_N" depart="537.0" departLane="random" departSpeed="10" />
    <vehicle id="N_W_186" type="Car" route="S_W" depart="538.0" departLane="random" departSpeed="10" />
    <vehicle id="N_W_187" type="Bike" route="S_W" depart="539.0" departLane="random" departSpeed="10" />
    <vehicle id="W_E_188" type="Bus" route="W_E" depart="540.0" departLane="random" departSpeed="10" />
    <vehicle id="E_S_189" type="Bike" route="W_S" depart="540.0" departLane="random" departSpeed="10" />
    <vehicle id="W_E_190" type="Car" route="W_E" depart="540.0" departLane="random" departSpeed="10" />
    <vehicle id="W_S_191" type="Bus" route="E_S" depart="542.0" departLane="random" departSpeed="10" />
    <vehicle id="E_W_192" type="Bike" route="E_W" depart="543.0" departLane="random" departSpeed="10" />
    <vehicle id="N_E_193" type="Car" route="N_E" depart="546.0" departLane="random" departSpeed="10" />
    <vehicle id="W_S_194" type="Bike" route="E_S" depart="548.0" departLane="random" departSpeed="10" />
    <vehicle id="N_E_195" type="Bike" route="N_E" depart="548.0" departLane="random" departSpeed="10" />
    <vehicle id="N_W_196" type="Bike" route="S_W" depart="549.0" departLane="random" departSpeed="10" />
    <vehicle id="S_E_197" type="Bus" route="S_E" depart="549.0" departLane="random" departSpeed="10" />
    <vehicle id="W_S_198" type="Bus" route="E_S" depart="551.0" departLane="random" departSpeed="10" />
    <vehicle id="W_S_199" type="Car" route="E_S" depart="551.0" departLane="random" departSpeed="10" />
    <vehicle id="N_W_200" type="Bike" route="S_W" depart="553.0" departLane="random" departSpeed="10" />
    <vehicle id="W_N_201" type="Car" route="W_N" depart="557.0" departLane="random" departSpeed="10" />
    <vehicle id="N_W_202" type="Car" route="S_W" depart="559.0" departLane="random" departSpeed="10" />
    <vehicle id="N_E_203" type="Bike" route="N_E" depart="560.0" departLane="random" departSpeed="10" />
    <vehicle id="E_W_204" type="Bike" route="E_W" depart="560.0" departLane="random" departSpeed="10" />
    <vehicle id="E_W_205" type="Auto" route="E_W" depart="561.0" departLane="random" departSpeed="10" />
    <vehicle id="W_E_206" type="Auto" route="W_E" depart="568.0" departLane="random" departSpeed="10" />
    <vehicle id="S_N_207" type="Auto" route="S_N" depart="568.0" departLane="random" departSpeed="10" />
    <vehicle id="N_S_208" type="Bike" route="N_S" depart="571.0" departLane="random" departSpeed="10" />
    <vehicle id="N_W_209" type="Car" route="S_W" depart="572.0" departLane="random" departSpeed="10" />
    <vehicle id="W_E_210" type="Car" route="W_E" depart="573.0" departLane="random" departSpeed="10" />
    <vehicle id="N_S_211" type="Bus" route="N_S" depart="574.0" departLane="random" departSpeed="10" />
    <vehicle id="W_S_212" type="Car" route="E_S" depart="577.0" departLane="random" departSpeed="10" />
    <vehicle id="N_W_213" type="Car" route="S_W" depart="577.0" departLane="random" departSpeed="10" />
    <vehicle id="W_S_214" type="Bike" route="E_S" depart="579.0" departLane="random" departSpeed="10" />
    <vehicle id="W_S_215" type="Bike" route="E_S" depart="579.0" departLane="random" departSpeed="10" />
    <vehicle id="E_S_216" type="Bike" route="W_S" depart="581.0" departLane="random" departSpeed="10" />
    <vehicle id="N_W_217" type="Bike" route="S_W" depart="583.0" departLane="random" departSpeed="10" />
    <vehicle id="W_E_218" type="Car" route="W_E" depart="586.0" departLane="random" departSpeed="10" />
    <vehicle id="W_N_219" type="Bike" route="W_N" depart="588.0" departLane="random" departSpeed="10" />
    <vehicle id="N_S_220" type="Bike" route="N_S" depart="588.0" departLane="random" departSpeed="10" />
    <vehicle id="W_E_221" type="Bike" route="W_E" depart="589.0" departLane="random" departSpeed="10" />
    <vehicle id="S_N_222" type="Bike" route="S_N" depart="594.0" departLane="random" departSpeed="10" />
    <vehicle id="W_S_223" type="Car" route="E_S" depart="595.0" departLane="random" departSpeed="10" />
    <vehicle id="W_N_224" type="Bike" route="W_N" depart="596.0" departLane="random" departSpeed="10" />
    <vehicle id="N_W_225" type="Auto" route="S_W" depart="596.0" departLane="random" departSpeed="10" />
    <vehicle id="E_S_226" type="Bike" route="W_S" depart="597.0" departLane="random" departSpeed="10" />
    <vehicle id="N_W_227" type="Bike" route="S_W" depart="597.0" departLane="random" departSpeed="10" />
    <vehicle id="E_W_228" type="Bike" route="E_W" depart="598.0" departLane="random" departSpeed="10" />
    <vehicle id="N_S_229" type="Car" route="N_S" depart="602.0" departLane="random" departSpeed="10" />
    <vehicle id="W_E_230" type="Car" route="W_E" depart="604.0" departLane="random" departSpeed="10" />
    <vehicle id="S_N_231" type="Bike" route="S_N" depart="605.0" departLane="random" departSpeed="10" />
    <vehicle id="W_E_232" type="Bike" route="W_E" depart="607.0" departLane="random" departSpeed="10" />
    <vehicle id="W_N_233" type="Bike" route="W_N" depart="610.0" departLane="random" departSpeed="10" />
    <vehicle id="N_E_234" type="Auto" route="N_E" depart="610.0" departLane="random" departSpeed="10" />
    <vehicle id="W_N_235" type="Bike" route="W_N" depart="611.0" departLane="random" departSpeed="10" />
    <vehicle id="S_N_236" type="Car" route="S_N" depart="612.0" departLane="random" departSpeed="10" />
    <vehicle id="N_W_237" type="Bike" route="S_W" depart="615.0" departLane="random" departSpeed="10" />
    <vehicle id="W_S_238" type="Bus" route="E_S" depart="617.0" departLane="random" departSpeed="10" />
    <vehicle id="N_S_239" type="Bike" route="N_S" depart="617.0" departLane="random" departSpeed="10" />
    <vehicle id="N_W_240" type="Auto" route="S_W" depart="617.0" departLane="random" departSpeed="10" />
    <vehicle id="E_S_241" type="Auto" route="W_S" depart="618.0" departLane="random" departSpeed="10" />
    <vehicle id="W_N_242" type="Bike" route="W_N" depart="618.0" departLane="random" departSpeed="10" />
    <vehicle id="E_N_243" type="Bike" route="E_N" depart="619.0" departLane="random" departSpeed="10" />
    <vehicle id="S_N_244" type="Car" route="S_N" depart="621.0" departLane="random" departSpeed="10" />
    <vehicle id="N_E_245" type="Bike" route="N_E" depart="623.0" departLane="random" departSpeed="10" />
    <vehicle id="S_W_246" type="Bike" route="N_W" depart="623.0" departLane="random" departSpeed="10" />
    <vehicle id="S_W_247" type="Bike" route="N_W" depart="624.0" departLane="random" departSpeed="10" />
    <vehicle id="N_E_248" type="Bike" route="N_E" depart="627.0" departLane="random" departSpeed="10" />
    <vehicle id="S_N_249" type="Bike" route="S_N" depart="630.0" departLane="random" departSpeed="10" />
    <vehicle id="N_E_250" type="Bike" route="N_E" depart="630.0" departLane="random" departSpeed="10" />
    <vehicle id="E_S_251" type="Bike" route="W_S" depart="631.0" departLane="random" departSpeed="10" />
    <vehicle id="E_W_252" type="Bike" route="E_W" depart="631.0" departLane="random" departSpeed="10" />
    <vehicle id="W_E_253" type="Bike" route="W_E" depart="632.0" departLane="random" departSpeed="10" />
    <vehicle id="E_W_254" type="Bike" route="E_W" depart="637.0" departLane="random" departSpeed="10" />
    <vehicle id="N_E_255" type="Bus" route="N_E" depart="640.0" departLane="random" departSpeed="10" />
    <vehicle id="W_E_256" type="Auto" route="W_E" depart="643.0" departLane="random" departSpeed="10" />
    <vehicle id="W_N_257" type="Bike" route="W_N" depart="644.0" departLane="random" departSpeed="10" />
    <vehicle id="W_N_258" type="Bike" route="W_N" depart="646.0" departLane="random" departSpeed="10" />
    <vehicle id="W_N_259" type="Car" route="W_N" depart="648.0" departLane="random" departSpeed="10" />
    <vehicle id="E_N_260" type="Car" route="E_N" depart="650.0" departLane="random" departSpeed="10" />
    <vehicle id="S_E_261" type="Auto" route="S_E" depart="651.0" departLane="random" departSpeed="10" />
    <vehicle id="S_N_262" type="Auto" route="S_N" depart="651.0" departLane="random" departSpeed="10" />
    <vehicle id="W_E_263" type="Bike" route="W_E" depart="653.0" departLane="random" departSpeed="10" />
    <vehicle id="N_E_264" type="Car" route="N_E" depart="653.0" departLane="random" departSpeed="10" />
    <vehicle id="S_N_265" type="Bike" route="S_N" depart="654.0" departLane="random" departSpeed="10" />
    <vehicle id="W_N_266" type="Car" route="W_N" depart="654.0" departLane="random" departSpeed="10" />
    <vehicle id="N_S_267" type="Bike" route="N_S" depart="655.0" departLane="random" departSpeed="10" />
    <vehicle id="W_S_268" type="Bike" route="E_S" depart="657.0" departLane="random" departSpeed="10" />
    <vehicle id="S_N_269" type="Car" route="S_N" depart="660.0" departLane="random" departSpeed="10" />
    <vehicle id="E_W_270" type="Car" route="E_W" depart="660.0" departLane="random" departSpeed="10" />
    <vehicle id="N_W_271" type="Car" route="S_W" depart="662.0" departLane="random" departSpeed="10" />
    <vehicle id="E_W_272" type="Car" route="E_W" depart="664.0" departLane="random" departSpeed="10" />
    <vehicle id="N_E_273" type="Car" route="N_E" depart="665.0" departLane="random" departSpeed="10" />
    <vehicle id="W_N_274" type="Bike" route="W_N" depart="667.0" departLane="random" departSpeed="10" />