<nodes>
	<node id="TL" x="0" y="0" type="traffic_light"/>
	<node id="W" x="-500" y="0" type="priority"/>
	<node id="E" x="500" y="0" type="priority"/>
	<node id="N" x="0" y="500" type="priority"/>
	<node id="S" x="0" y="-500" type="priority"/>
</nodes>
	