
            <routes>
                <vType guiShape="passenger/hatchback" accel="1.0" decel="4.0" id="Car" color="white" width="2.5" length="4.0" minGap="1.0" maxSpeed="80.0" sigma="0.2"/>
                <vType guiShape="bus" accel="0.5" decel="5.0" id="Bus" color="blue" width="3.5" length="6.0" minGap="1.0" maxSpeed="40.0" sigma="0.3"/>
                <vType guiShape="motorcycle" accel="1.0" decel="4.0" id="Bike" color="green" width="1.5" length="2.0" minGap="1.0" maxSpeed="60.0" sigma="0.6"/>
                <vType guiShape="evehicle" accel="1.0" decel="4.0" id="Auto" color="yellow" width="2.0" length="3.0" minGap="1.0" maxSpeed="50.0" sigma="0.6"/>
                
                <route id="W_N" edges="W2TL TL2N"/>
                <route id="W_E" edges="W2TL TL2E"/>
                <route id="W_S" edges="W2TL TL2S"/>
                <route id="N_W" edges="N2TL TL2W"/>
                <route id="N_E" edges="N2TL TL2E"/>
                <route id="N_S" edges="N2TL TL2S"/>
                <route id="E_W" edges="E2TL TL2W"/>
                <route id="E_N" edges="E2TL TL2N"/>
                <route id="E_S" edges="E2TL TL2S"/>
                <route id="S_W" edges="S2TL TL2W"/>
                <route id="S_N" edges="S2TL TL2N"/>
                <route id="S_E" edges="S2TL TL2E"/>
    <vehicle id="N_W_0" type="Bike" route="S_W" depart="25.0" departLane="random" departSpeed="10" />
    <vehicle id="W_E_1" type="Car" route="W_E" depart="35.0" departLane="random" departSpeed="10" />
    <vehicle id="N_W_2" type="Bike" route="S_W" depart="36.0" departLane="random" departSpeed="10" />
    <vehicle id="N_E_3" type="Car" route="N_E" depart="38.0" departLane="random" departSpeed="10" />
    <vehicle id="W_N_4" type="Bike" route="W_N" depart="56.0" departLane="random" departSpeed="10" />
    <vehicle id="N_E_5" type="Bike" route="N_E" depart="65.0" departLane="random" departSpeed="10" />
    <vehicle id="N_S_6" type="Auto" route="N_S" depart="66.0" departLane="random" departSpeed="10" />
    <vehicle id="W_N_7" type="Bike" route="W_N" depart="67.0" departLane="random" departSpeed="10" />
    <vehicle id="W_N_8" type="Car" route="W_N" depart="67.0" departLane="random" departSpeed="10" />
    <vehicle id="W_N_9" type="Bike" route="W_N" depart="87.0" departLane="random" departSpeed="10" />
    <vehicle id="N_E_10" type="Auto" route="N_E" depart="94.0" departLane="random" departSpeed="10" />
    <vehicle id="S_N_11" type="Auto" route="S_N" depart="95.0" departLane="random" departSpeed="10" />
    <vehicle id="W_N_12" type="Bike" route="W_N" depart="96.0" departLane="random" departSpeed="10" />
    <vehicle id="W_E_13" type="Bike" route="W_E" depart="99.0" departLane="random" departSpeed="10" />
    <vehicle id="N_W_14" type="Bus" route="S_W" depart="103.0" departLane="random" departSpeed="10" />
    <vehicle id="W_N_15" type="Bike" route="W_N" depart="114.0" departLane="random" departSpeed="10" />
    <vehicle id="E_W_16" type="Bike" route="E_W" depart="118.0" departLane="random" departSpeed="10" />
    <vehicle id="N_S_17" type="Bike" route="N_S" depart="120.0" departLane="random" departSpeed="10" />
    <vehicle id="S_E_18" type="Bike" route="S_E" depart="124.0" departLane="random" departSpeed="10" />
    <vehicle id="N_W_19" type="Car" route="S_W" depart="131.0" departLane="random" departSpeed="10" />
    <vehicle id="W_E_20" type="Bike" route="W_E" depart="139.0" departLane="random" departSpeed="10" />
    <vehicle id="N_E_21" type="Auto" route="N_E" depart="145.0" departLane="random" departSpeed="10" />
    <vehicle id="S_N_22" type="Auto" route="S_N" depart="146.0" departLane="random" departSpeed="10" />
    <vehicle id="N_E_23" type="Bike" route="N_E" depart="152.0" departLane="random" departSpeed="10" />
    <vehicle id="E_W_24" type="Bike" route="E_W" depart="155.0" departLane="random" departSpeed="10" />
    <vehicle id="W_S_25" type="Car" route="E_S" depart="160.0" departLane="random" departSpeed="10" />
    <vehicle id="W_S_26" type="Bus" route="E_S" depart="164.0" departLane="random" departSpeed="10" />
    <vehicle id="E_W_27" type="Car" route="E_W" depart="164.0" departLane="random" departSpeed="10" />
    <vehicle id="E_W_28" type="Bike" route="E_W" depart="166.0" departLane="random" departSpeed="10" />
    <vehicle id="N_S_29" type="Car" route="N_S" depart="172.0" departLane="random" departSpeed="10" />
    <vehicle id="N_W_30" type="Bus" route="S_W" depart="173.0" departLane="random" departSpeed="10" />
    <vehicle id="N_W_31" type="Car" route="S_W" depart="175.0" departLane="random" departSpeed="10" />
    <vehicle id="W_S_32" type="Bus" route="E_S" depart="176.0" departLane="random" departSpeed="10" />
    <vehicle id="N_S_33" type="Bike" route="N_S" depart="176.0" departLane="random" departSpeed="10" />
    <vehicle id="S_N_34" type="Car" route="S_N" depart="177.0" departLane="random" departSpeed="10" />
    <vehicle id="E_W_35" type="Bike" route="E_W" depart="179.0" departLane="random" departSpeed="10" />
    <vehicle id="E_W_36" type="Car" route="E_W" depart="181.0" departLane="random" departSpeed="10" />
    <vehicle id="E_W_37" type="Bike" route="E_W" depart="183.0" departLane="random" departSpeed="10" />
    <vehicle id="S_N_38" type="Car" route="S_N" depart="185.0" departLane="random" departSpeed="10" />
    <vehicle id="S_W_39" type="Bike" route="N_W" depart="186.0" departLane="random" departSpeed="10" />
    <vehicle id="E_W_40" type="Car" route="E_W" depart="189.0" departLane="random" departSpeed="10" />
    <vehicle id="N_W_41" type="Bike" route="S_W" depart="197.0" departLane="random" departSpeed="10" />
    <vehicle id="W_E_42" type="Bike" route="W_E" depart="199.0" departLane="random" departSpeed="10" />
    <vehicle id="N_E_43" type="Bike" route="N_E" depart="200.0" departLane="random" departSpeed="10" />
    <vehicle id="W_S_44" type="Bus" route="E_S" depart="206.0" departLane="random" departSpeed="10" />
    <vehicle id="N_E_45" type="Car" route="N_E" depart="209.0" departLane="random" departSpeed="10" />
    <vehicle id="N_E_46" type="Car" route="N_E" depart="210.0" departLane="random" departSpeed="10" />
    <vehicle id="N_S_47" type="Auto" route="N_S" depart="212.0" departLane="random" departSpeed="10" />
    <vehicle id="W_S_48" type="Car" route="E_S" depart="213.0" departLane="random" departSpeed="10" />
    <vehicle id="W_S_49" type="Bike" route="E_S" depart="213.0" departLane="random" departSpeed="10" />
    <vehicle id="N_W_50" type="Bike" route="S_W" depart="213.0" departLane="random" departSpeed="10" />
    <vehicle id="N_W_51" type="Bike" route="S_W" depart="215.0" departLane="random" departSpeed="10" />
    <vehicle id="W_S_52" type="Bike" route="E_S" depart="216.0" departLane="random" departSpeed="10" />
    <vehicle id="W_N_53" type="Bike" route="W_N" depart="217.0" departLane="random" departSpeed="10" />
    <vehicle id="W_E_54" type="Auto" route="W_E" depart="223.0" departLane="random" departSpeed="10" />
    <vehicle id="W_E_55" type="Bus" route="W_E" depart="223.0" departLane="random" departSpeed="10" />
    <vehicle id="W_N_56" type="Bike" route="W_N" depart="223.0" departLane="random" departSpeed="10" />
    <vehicle id="E_S_57" type="Bike" route="W_S" depart="224.0" departLane="random" departSpeed="10" />
    <vehicle id="E_N_58" type="Bike" route="E_N" depart="228.0" departLane="random" departSpeed="10" />
    <vehicle id="W_S_59" type="Auto" route="E_S" depart="229.0" departLane="random" departSpeed="10" />
    <vehicle id="W_E_60" type="Bus" route="W_E" depart="231.0" departLane="random" departSpeed="10" />
    <vehicle id="W_S_61" type="Auto" route="E_S" depart="233.0" departLane="random" departSpeed="10" />
    <vehicle id="W_S_62" type="Car" route="E_S" depart="235.0" departLane="random" departSpeed="10" />
    <vehicle id="W_S_63" type="Car" route="E_S" depart="238.0" departLane="random" departSpeed="10" />
    <vehicle id="S_E_64" type="Auto" route="S_E" depart="240.0" departLane="random" departSpeed="10" />
    <vehicle id="N_E_65" type="Car" route="N_E" depart="242.0" departLane="random" departSpeed="10" />
    <vehicle id="W_E_66" type="Bus" route="W_E" depart="242.0" departLane="random" departSpeed="10" />
    <vehicle id="N_E_67" type="Car" route="N_E" depart="243.0" departLane="random" departSpeed="10" />
    <vehicle id="E_N_68" type="Auto" route="E_N" depart="243.0" departLane="random" departSpeed="10" />
    <vehicle id="N_E_69" type="Bike" route="N_E" depart="244.0" departLane="random" departSpeed="10" />
    <vehicle id="N_E_70" type="Auto" route="N_E" depart="246.0" departLane="random" departSpeed="10" />
    <vehicle id="N_W_71" type="Bike" route="S_W" depart="248.0" departLane="random" departSpeed="10" />
    <vehicle id="S_N_72" type="Bike" route="S_N" depart="248.0" departLane="random" departSpeed="10" />
    <vehicle id="W_E_73" type="Bike" route="W_E" depart="251.0" departLane="random" departSpeed="10" />
    <vehicle id="W_S_74" type="Car" route="E_S" depart="252.0" departLane="random" departSpeed="10" />
    <vehicle id="S_N_75" type="Bike" route="S_N" depart="253.0" departLane="random" departSpeed="10" />
    <vehicle id="N_E_76" type="Bike" route="N_E" depart="253.0" departLane="random" departSpeed="10" />
    <vehicle id="E_S_77" type="Bike" route="W_S" depart="253.0" departLane="random" departSpeed="10" />
    <vehicle id="E_S_78" type="Car" route="W_S" depart="255.0" departLane="random" departSpeed="10" />
    <vehicle id="E_W_79" type="Bike" route="E_W" depart="257.0" departLane="random" departSpeed="10" />
    <vehicle id="E_S_80" type="Auto" route="W_S" depart="257.0" departLane="random" departSpeed="10" />
    <vehicle id="N_E_81" type="Bus" route="N_E" depart="257.0" departLane="random" departSpeed="10" />
    <vehicle id="W_E_82" type="Auto" route="W_E" depart="258.0" departLane="random" departSpeed="10" />
    <vehicle id="N_S_83" type="Auto" route="N_S" depart="259.0" departLane="random" departSpeed="10" />
    <vehicle id="S_E_84" type="Car" route="S_E" depart="261.0" departLane="random" departSpeed="10" />
    <vehicle id="N_E_85" type="Bus" route="N_E" depart="261.0" departLane="random" departSpeed="10" />
    <vehicle id="S_W_86" type="Car" route="N_W" depart="261.0" departLane="random" departSpeed="10" />
    <vehicle id="W_N_87" type="Car" route="W_N" depart="266.0" departLane="random" departSpeed="10" />
    <vehicle id="N_W_88" type="Auto" route="S_W" depart="266.0" departLane="random" departSpeed="10" />
    <vehicle id="N_W_89" type="Car" route="S_W" depart="268.0" departLane="random" departSpeed="10" />
    <vehicle id="N_W_90" type="Car" route="S_W" depart="268.0" departLane="random" departSpeed="10" />
    <vehicle id="N_W_91" type="Bike" route="S_W" depart="269.0" departLane="random" departSpeed="10" />
    <vehicle id="E_N_92" type="Bike" route="E_N" depart="269.0" departLane="random" departSpeed="10" />
    <vehicle id="E_W_93" type="Bike" route="E_W" depart="271.0" departLane="random" departSpeed="10" />
    <vehicle id="W_E_94" type="Auto" route="W_E" depart="272.0" departLane="random" departSpeed="10" />
    <vehicle id="S_N_95" type="Bike" route="S_N" depart="273.0" departLane="random" departSpeed="10" />
    <vehicle id="W_S_96" type="Bike" route="E_S" depart="274.0" departLane="random" departSpeed="10" />
    <vehicle id="E_S_97" type="Car" route="W_S" depart="275.0" departLane="random" departSpeed="10" />
    <vehicle id="N_W_98" type="Bus" route="S_W" depart="275.0" departLane="random" departSpeed="10" />
    <vehicle id="S_E_99" type="Auto" route="S_E" depart="278.0" departLane="random" departSpeed="10" />
    <vehicle id="W_N_100" type="Bike" route="W_N" depart="284.0" departLane="random" departSpeed="10" />
    <vehicle id="W_S_101" type="Auto" route="E_S" depart="285.0" departLane="random" departSpeed="10" />
    <vehicle id="W_E_102" type="Car" route="W_E" depart="288.0" departLane="random" departSpeed="10" />
    <vehicle id="S_W_103" type="Bike" route="N_W" depart="288.0" departLane="random" departSpeed="10" />
    <vehicle id="W_E_104" type="Car" route="W_E" depart="291.0" departLane="random" departSpeed="10" />
    <vehicle id="N_W_105" type="Bike" route="S_W" depart="291.0" departLane="random" departSpeed="10" />
    <vehicle id="N_W_106" type="Bike" route="S_W" depart="293.0" departLane="random" departSpeed="10" />
    <vehicle id="E_S_107" type="Bike" route="W_S" depart="294.0" departLane="random" departSpeed="10" />
    <vehicle id="S_N_108" type="Car" route="S_N" depart="296.0" departLane="random" departSpeed="10" />
    <vehicle id="S_W_109" type="Bike" route="N_W" depart="296.0" departLane="random" departSpeed="10" />
    <vehicle id="E_W_110" type="Car" route="E_W" depart="296.0" departLane="random" departSpeed="10" />
    <vehicle id="S_N_111" type="Car" route="S_N" depart="297.0" departLane="random" departSpeed="10" />
    <vehicle id="E_N_112" type="Car" route="E_N" depart="297.0" departLane="random" departSpeed="10" />
    <vehicle id="N_W_113" type="Bike" route="S_W" depart="297.0" departLane="random" departSpeed="10" />
    <vehicle id="N_E_114" type="Bus" route="N_E" depart="298.0" departLane="random" departSpeed="10" />
    <vehicle id="N_S_115" type="Auto" route="N_S" depart="298.0" departLane="random" departSpeed="10" />
    <vehicle id="W_E_116" type="Bike" route="W_E" depart="299.0" departLane="random" departSpeed="10" />
    <vehicle id="N_W_117" type="Bike" route="S_W" depart="301.0" departLane="random" departSpeed="10" />
    <vehicle id="S_N_118" type="Bike" route="S_N" depart="302.0" departLane="random" departSpeed="10" />
    <vehicle id="E_W_119" type="Auto" route="E_W" depart="303.0" departLane="random" departSpeed="10" />
    <vehicle id="S_N_120" type="Car" route="S_N" depart="304.0" departLane="random" departSpeed="10" />
    <vehicle id="S_N_121" type="Car" route="S_N" depart="305.0" departLane="random" departSpeed="10" />
    <vehicle id="W_S_122" type="Car" route="E_S" depart="305.0" departLane="random" departSpeed="10" />
    <vehicle id="W_S_123" type="Bike" route="E_S" depart="305.0" departLane="random" departSpeed="10" />
    <vehicle id="W_S_124" type="Auto" route="E_S" depart="307.0" departLane="random" departSpeed="10" />
    <vehicle id="W_E_125" type="Bike" route="W_E" depart="307.0" departLane="random" departSpeed="10" />
    <vehicle id="W_N_126" type="Bike" route="W_N" depart="308.0" departLane="random" departSpeed="10" />
    <vehicle id="S_N_127" type="Bike" route="S_N" depart="308.0" departLane="random" departSpeed="10" />
    <vehicle id="W_N_128" type="Bike" route="W_N" depart="309.0" departLane="random" departSpeed="10" />
    <vehicle id="N_E_129" type="Bike" route="N_E" depart="310.0" departLane="random" departSpeed="10" />
    <vehicle id="N_E_130" type="Bike" route="N_E" depart="310.0" departLane="random" departSpeed="10" />
    <vehicle id="W_E_131" type="Bike" route="W_E" depart="311.0" departLane="random" departSpeed="10" />
    <vehicle id="W_E_132" type="Bike" route="W_E" depart="311.0" departLane="random" departSpeed="10" />
    <vehicle id="N_S_133" type="Car" route="N_S" depart="313.0" departLane="random" departSpeed="10" />
    <vehicle id="W_S_134" type="Bike" route="E_S" depart="318.0" departLane="random" departSpeed="10" />
    <vehicle id="W_S_135" type="Bus" route="E_S" depart="319.0" departLane="random" departSpeed="10" />
    <vehicle id="N_S_136" type="Car" route="N_S" depart="319.0" departLane="random" departSpeed="10" />
    <vehicle id="S_E_137" type="Auto" route="S_E" depart="319.0" departLane="random" departSpeed="10" />
    <vehicle id="N_E_138" type="Bike" route="N_E" depart="321.0" departLane="random" departSpeed="10" />
    <vehicle id="N_E_139" type="Bike" route="N_E" depart="322.0" departLane="random" departSpeed="10" />
    <vehicle id="N_W_140" type="Bike" route="S_W" depart="323.0" departLane="random" departSpeed="10" />
    <vehicle id="S_E_141" type="Bike" route="S_E" depart="325.0" departLane="random" departSpeed="10" />
    <vehicle id="S_E_142" type="Bike" route="S_E" depart="326.0" departLane="random" departSpeed="10" />
    <vehicle id="E_W_143" type="Auto" route="E_W" depart="326.0" departLane="random" departSpeed="10" />
    <vehicle id="E_S_144" type="Bike" route="W_S" depart="328.0" departLane="random" departSpeed="10" />
    <vehicle id="S_N_145" type="Car" route="S_N" depart="328.0" departLane="random" departSpeed="10" />
    <vehicle id="S_E_146" type="Bike" route="S_E" depart="329.0" departLane="random" departSpeed="10" />
    <vehicle id="W_S_147" type="Auto" route="E_S" depart="329.0" departLane="random" departSpeed="10" />
    <vehicle id="W_S_148" type="Car" route="E_S" depart="330.0" departLane="random" departSpeed="10" />
    <vehicle id="N_S_149" type="Bike" route="N_S" depart="331.0" departLane="random" departSpeed="10" />
    <vehicle id="N_E_150" type="Car" route="N_E" depart="332.0" departLane="random" departSpeed="10" />
    <vehicle id="N_S_151" type="Bike" route="N_S" depart="332.0" departLane="random" departSpeed="10" />
    <vehicle id="N_E_152" type="Bike" route="N_E" depart="332.0" departLane="random" departSpeed="10" />
    <vehicle id="S_N_153" type="Car" route="S_N" depart="333.0" departLane="random" departSpeed="10" />
    <vehicle id="W_S_154" type="Bike" route="E_S" depart="333.0" departLane="random" departSpeed="10" />
    <vehicle id="W_E_155" type="Bus" route="W_E" depart="334.0" departLane="random" departSpeed="10" />
    <vehicle id="W_N_156" type="Auto" route="W_N" depart="335.0" departLane="random" departSpeed="10" />
    <vehicle id="S_N_157" type="Car" route="S_N" depart="336.0" departLane="random" departSpeed="10" />
    <vehicle id="N_E_158" type="Bike" route="N_E" depart="340.0" departLane="random" departSpeed="10" />
    <vehicle id="E_W_159" type="Bike" route="E_W" depart="340.0" departLane="random" departSpeed="10" />
    <vehicle id="N_S_160" type="Bike" route="N_S" depart="341.0" departLane="random" departSpeed="10" />
    <vehicle id="N_E_161" type="Car" route="N_E" depart="341.0" departLane="random" departSpeed="10" />
    <vehicle id="W_N_162" type="Car" route="W_N" depart="341.0" departLane="random" departSpeed="10" />
    <vehicle id="W_N_163" type="Bike" route="W_N" depart="342.0" departLane="random" departSpeed="10" />
    <vehicle id="E_W_164" type="Car" route="E_W" depart="343.0" departLane="random" departSpeed="10" />
    <vehicle id="W_S_165" type="Bike" route="E_S" depart="344.0" departLane="random" departSpeed="10" />
    <vehicle id="W_N_166" type="Bike" route="W_N" depart="347.0" departLane="random" departSpeed="10" />
    <vehicle id="W_N_167" type="Bike" route="W_N" depart="348.0" departLane="random" departSpeed="10" />
    <vehicle id="S_N_168" type="Bike" route="S_N" depart="350.0" departLane="random" departSpeed="10" />
    <vehicle id="N_E_169" type="Bike" route="N_E" depart="350.0" departLane="random" departSpeed="10" />
    <vehicle id="N_S_170" type="Bike" route="N_S" depart="350.0" departLane="random" departSpeed="10" />
    <vehicle id="N_W_171" type="Bike" route="S_W" depart="351.0" departLane="random" departSpeed="10" />
    <vehicle id="N_S_172" type="Car" route="N_S" depart="353.0" departLane="random" departSpeed="10" />
    <vehicle id="W_S_173" type="Bike" route="E_S" depart="353.0" departLane="random" departSpeed="10" />
    <vehicle id="S_W_174" type="Auto" route="N_W" depart="354.0" departLane="random" departSpeed="10" />
    <vehicle id="E_W_175" type="Bus" route="E_W" depart="357.0" departLane="random" departSpeed="10" />
    <vehicle id="W_S_176" type="Bus" route="E_S" depart="358.0" departLane="random" departSpeed="10" />
    <vehicle id="W_E_177" type="Bike" route="W_E" depart="358.0" departLane="random" departSpeed="10" />
    <vehicle id="N_S_178" type="Car" route="N_S" depart="361.0" departLane="random" departSpeed="10" />
    <vehicle id="W_E_179" type="Bike" route="W_E" depart="361.0" departLane="random" departSpeed="10" />
    <vehicle id="W_S_180" type="Car" route="E_S" depart="361.0" departLane="random" departSpeed="10" />
    <vehicle id="N_S_181" type="Bus" route="N_S" depart="362.0" departLane="random" departSpeed="10" />
    <vehicle id="W_N_182" type="Car" route="W_N" depart="362.0" departLane="random" departSpeed="10" />
    <vehicle id="E_W_183" type="Bike" route="E_W" depart="364.0" departLane="random" departSpeed="10" />
    <vehicle id="N_W_184" type="Car" route="S_W" depart="364.0" departLane="random" departSpeed="10" />
    <vehicle id="E_W_185" type="Auto" route="E_W" depart="366.0" departLane="random" departSpeed="10" />
    <vehicle id="E_W_186" type="Bike" route="E_W" depart="366.0" departLane="random" departSpeed="10" />
    <vehicle id="E_N_187" type="Bus" route="E_N" depart="367.0" departLane="random" departSpeed="10" />
    <vehicle id="N_E_188" type="Car" route="N_E" depart="370.0" departLane="random" departSpeed="10" />
    <vehicle id="N_W_189" type="Auto" route="S_W" depart="370.0" departLane="random" departSpeed="10" />
    <vehicle id="N_S_190" type="Auto" route="N_S" depart="370.0" departLane="random" departSpeed="10" />
    <vehicle id="W_E_191" type="Bus" route="W_E" depart="370.0" departLane="random" departSpeed="10" />
    <vehicle id="W_S_192" type="Car" route="E_S" depart="373.0" departLane="random" departSpeed="10" />
    <vehicle id="N_E_193" type="Car" route="N_E" depart="378.0" departLane="random" departSpeed="10" />
    <vehicle id="N_W_194" type="Auto" route="S_W" depart="378.0" departLane="random" departSpeed="10" />
    <vehicle id="W_E_195" type="Bike" route="W_E" depart="382.0" departLane="random" departSpeed="10" />
    <vehicle id="W_S_196" type="Car" route="E_S" depart="384.0" departLane="random" departSpeed="10" />
    <vehicle id="W_N_197" type="Bus" route="W_N" depart="387.0" departLane="random" departSpeed="10" />
    <vehicle id="N_E_198" type="Bike" route="N_E" depart="388.0" departLane="random" departSpeed="10" />
    <vehicle id="N_W_199" type="Bike" route="S_W" depart="388.0" departLane="random" departSpeed="10" />
    <vehicle id="W_S_200" type="Auto" route="E_S" depart="388.0" departLane="random" departSpeed="10" />
    <vehicle id="W_S_201" type="Bike" route="E_S" depart="389.0" departLane="random" departSpeed="10" />
    <vehicle id="W_N_202" type="Car" route="W_N" depart="390.0" departLane="random" departSpeed="10" />
    <vehicle id="W_S_203" type="Bike" route="E_S" depart="390.0" departLane="random" departSpeed="10" />
    <vehicle id="N_E_204" type="Bike" route="N_E" depart="390.0" departLane="random" departSpeed="10" />
    <vehicle id="N_E_205" type="Bike" route="N_E" depart="391.0" departLane="random" departSpeed="10" />
    <vehicle id="N_S_206" type="Auto" route="N_S" depart="392.0" departLane="random" departSpeed="10" />
    <vehicle id="E_W_207" type="Bike" route="E_W" depart="393.0" departLane="random" departSpeed="10" />
    <vehicle id="S_E_208" type="Car" route="S_E" depart="395.0" departLane="random" departSpeed="10" />
    <vehicle id="W_N_209" type="Bike" route="W_N" depart="396.0" departLane="random" departSpeed="10" />
    <vehicle id="N_E_210" type="Bike" route="N_E" depart="397.0" departLane="random" departSpeed="10" />
    <vehicle id="W_E_211" type="Car" route="W_E" depart="398.0" departLane="random" departSpeed="10" />
    <vehicle id="W_S_212" type="Bike" route="E_S" depart="399.0" departLane="random" departSpeed="10" />
    <vehicle id="N_E_213" type="Car" route="N_E" depart="401.0" departLane="random" departSpeed="10" />
    <vehicle id="N_E_214" type="Bike" route="N_E" depart="403.0" departLane="random" departSpeed="10" />
    <vehicle id="S_N_215" type="Car" route="S_N" depart="405.0" departLane="random" departSpeed="10" />
    <vehicle id="E_N_216" type="Bike" route="E_N" depart="405.0" departLane="random" departSpeed="10" />
    <vehicle id="E_W_217" type="Bike" route="E_W" depart="406.0" departLane="random" departSpeed="10" />
    <vehicle id="E_W_218" type="Car" route="E_W" depart="406.0" departLane="random" departSpeed="10" />
    <vehicle id="W_E_219" type="Bike" route="W_E" depart="407.0" departLane="random" departSpeed="10" />
    <vehicle id="N_W_220" type="Bus" route="S_W" depart="409.0" departLane="random" departSpeed="10" />
    <vehicle id="W_N_221" type="Bike" route="W_N" depart="411.0" departLane="random" departSpeed="10" />
    <vehicle id="N_E_222" type="Bus" route="N_E" depart="412.0" departLane="random" departSpeed="10" />
    <vehicle id="S_N_223" type="Auto" route="S_N" depart="413.0" departLane="random" departSpeed="10" />
    <vehicle id="S_N_224" type="Bike" route="S_N" depart="414.0" departLane="random" departSpeed="10" />
    <vehicle id="N_E_225" type="Bike" route="N_E" depart="414.0" departLane="random" departSpeed="10" />
    <vehicle id="N_S_226" type="Bike" route="N_S" depart="415.0" departLane="random" departSpeed="10" />
    <vehicle id="N_E_227" type="Bus" route="N_E" depart="417.0" departLane="random" departSpeed="10" />
    <vehicle id="N_S_228" type="Bike" route="N_S" depart="418.0" departLane="random" departSpeed="10" />
    <vehicle id="N_E_229" type="Car" route="N_E" depart="418.0" departLane="random" departSpeed="10" />
    <vehicle id="W_S_230" type="Bike" route="E_S" depart="420.0" departLane="random" departSpeed="10" />
    <vehicle id="N_S_231" type="Bus" route="N_S" depart="420.0" departLane="random" departSpeed="10" />
    <vehicle id="W_S_232" type="Bike" route="E_S" depart="421.0" departLane="random" departSpeed="10" />
    <vehicle id="W_E_233" type="Bike" route="W_E" depart="422.0" departLane="random" departSpeed="10" />
    <vehicle id="W_N_234" type="Bike" route="W_N" depart="422.0" departLane="random" departSpeed="10" />
    <vehicle id="W_S_235" type="Car" route="E_S" depart="422.0" departLane="random" departSpeed="10" />
    <vehicle id="N_W_236" type="Car" route="S_W" depart="423.0" departLane="random" departSpeed="10" />
    <vehicle id="N_W_237" type="Bike" route="S_W" depart="424.0" departLane="random" departSpeed="10" />
    <vehicle id="W_N_238" type="Car" route="W_N" depart="424.0" departLane="random" departSpeed="10" />
    <vehicle id="N_W_239" type="Bike" route="S_W" depart="426.0" departLane="random" departSpeed="10" />
    <vehicle id="W_N_240" type="Car" route="W_N" depart="426.0" departLane="random" departSpeed="10" />
    <vehicle id="N_S_241" type="Car" route="N_S" depart="426.0" departLane="random" departSpeed="10" />
    <vehicle id="N_W_242" type="Bike" route="S_W" depart="427.0" departLane="random" departSpeed="10" />
    <vehicle id="N_S_243" type="Bike" route="N_S" depart="428.0" departLane="random" departSpeed="10" />
    <vehicle id="W_N_244" type="Car" route="W_N" depart="430.0" departLane="random" departSpeed="10" />
    <vehicle id="W_S_245" type="Bike" route="E_S" depart="431.0" departLane="random" departSpeed="10" />
    <vehicle id="N_E_246" type="Bike" route="N_E" depart="431.0" departLane="random" departSpeed="10" />
    <vehicle id="W_S_247" type="Bike" route="E_S" depart="431.0" departLane="random" departSpeed="10" />
    <vehicle id="E_W_248" type="Bike" route="E_W" depart="432.0" departLane="random" departSpeed="10" />
    <vehicle id="N_W_249" type="Car" route="S_W" depart="433.0" departLane="random" departSpeed="10" />
    <vehicle id="S_E_250" type="Bike" route="S_E" depart="434.0" departLane="random" departSpeed="10" />
    <vehicle id="W_S_251" type="Bike" route="E_S" depart="435.0" departLane="random" departSpeed="10" />
    <vehicle id="N_W_252" type="Car" route="S_W" depart="435.0" departLane="random" departSpeed="10" />
    <vehicle id="W_E_253" type="Car" route="W_E" depart="436.0" departLane="random" departSpeed="10" />
    <vehicle id="W_S_254" type="Bike" route="E_S" depart="437.0" departLane="random" departSpeed="10" />
    <vehicle id="N_E_255" type="Bike" route="N_E" depart="437.0" departLane="random" departSpeed="10" />
    <vehicle id="W_S_256" type="Auto" route="E_S" depart="438.0" departLane="random" departSpeed="10" />
    <vehicle id="S_N_257" type="Bus" route="S_N" depart="439.0" departLane="random" departSpeed="10" />
    <vehicle id="W_E_258" type="Bike" route="W_E" depart="443.0" departLane="random" departSpeed="10" />
    <vehicle id="W_E_259" type="Car" route="W_E" depart="444.0" departLane="random" departSpeed="10" />
    <vehicle id="N_E_260" type="Bike" route="N_E" depart="446.0" departLane="random" departSpeed="10" />
    <vehicle id="W_E_261" type="Bike" route="W_E" depart="446.0" departLane="random" departSpeed="10" />
    <vehicle id="N_E_262" type="Bike" route="N_E" depart="446.0" departLane="random" departSpeed="10" />
    <vehicle id="N_S_263" type="Car" route="N_S" depart="448.0" departLane="random" departSpeed="10" />
    <vehicle id="N_S_264" type="Car" route="N_S" depart="451.0" departLane="random" departSpeed="10" />
    <vehicle id="N_W_265" type="Bus" route="S_W" depart="452.0" departLane="random" departSpeed="10" />
    <vehicle id="E_N_266" type="Bike" route="E_N" depart="453.0" departLane="random" departSpeed="10" />
    <vehicle id="S_N_267" type="Car" route="S_N" depart="453.0" departLane="random" departSpeed="10" />
    <vehicle id="E_S_268" type="Car" route="W_S" depart="454.0" departLane="random" departSpeed="10" />
    <vehicle id="N_E_269" type="Bike" route="N_E" depart="454.0" departLane="random" departSpeed="10" />
    <vehicle id="W_E_270" type="Bike" route="W_E" depart="456.0" departLane="random" departSpeed="10" />
    <vehicle id="N_E_271" type="Bike" route="N_E" depart="457.0" departLane="random" departSpeed="10" />
    <vehicle id="W_E_272" type="Bike" route="W_E" depart="457.0" departLane="random" departSpeed="10" />
    <vehicle id="W_S_273" type="Car" route="E_S" depart="457.0" departLane="random" departSpeed="10" />
    <vehicle id="W_E_274" type="Bike" route="W_E" depart="458.0" departLane="random" departSpeed="10" />