
            <routes>
                <vType guiShape="passenger/hatchback" accel="1.0" decel="4.0" id="Car" color="white" width="2.5" length="4.0" minGap="1.0" maxSpeed="80.0" sigma="0.2"/>
                <vType guiShape="bus" accel="0.5" decel="5.0" id="Bus" color="blue" width="3.5" length="6.0" minGap="1.0" maxSpeed="40.0" sigma="0.3"/>
                <vType guiShape="motorcycle" accel="1.0" decel="4.0" id="Bike" color="green" width="1.5" length="2.0" minGap="1.0" maxSpeed="60.0" sigma="0.6"/>
                <vType guiShape="evehicle" accel="1.0" decel="4.0" id="Auto" color="yellow" width="2.0" length="3.0" minGap="1.0" maxSpeed="50.0" sigma="0.6"/>
                
                <route id="W_N" edges="W2TL TL2N"/>
                <route id="W_E" edges="W2TL TL2E"/>
                <route id="W_S" edges="W2TL TL2S"/>
                <route id="N_W" edges="N2TL TL2W"/>
                <route id="N_E" edges="N2TL TL2E"/>
                <route id="N_S" edges="N2TL TL2S"/>
                <route id="E_W" edges="E2TL TL2W"/>
                <route id="E_N" edges="E2TL TL2N"/>
                <route id="E_S" edges="E2TL TL2S"/>
                <route id="S_W" edges="S2TL TL2W"/>
                <route id="S_N" edges="S2TL TL2N"/>
                <route id="S_E" edges="S2TL TL2E"/>
    <vehicle id="W_N_0" type="Bike" route="W_N" depart="53.0" departLane="random" departSpeed="10" />
    <vehicle id="N_W_1" type="Bike" route="S_W" depart="56.0" departLane="random" departSpeed="10" />
    <vehicle id="W_E_2" type="Car" route="W_E" depart="60.0" departLane="random" departSpeed="10" />
    <vehicle id="W_N_3" type="Bike" route="W_N" depart="69.0" departLane="random" departSpeed="10" />
    <vehicle id="S_N_4" type="Bike" route="S_N" depart="72.0" departLane="random" departSpeed="10" />
    <vehicle id="W_S_5" type="Bus" route="E_S" depart="82.0" departLane="random" departSpeed="10" />
    <vehicle id="W_N_6" type="Car" route="W_N" depart="90.0" departLane="random" departSpeed="10" />
    <vehicle id="W_S_7" type="Car" route="E_S" depart="107.0" departLane="random" departSpeed="10" />
    <vehicle id="N_E_8" type="Bike" route="N_E" depart="111.0" departLane="random" departSpeed="10" />
    <vehicle id="W_S_9" type="Bike" route="E_S" depart="117.0" departLane="random" departSpeed="10" />
    <vehicle id="E_S_10" type="Bus" route="W_S" depart="122.0" departLane="random" departSpeed="10" />
    <vehicle id="W_E_11" type="Bike" route="W_E" depart="123.0" departLane="random" departSpeed="10" />
    <vehicle id="N_S_12" type="Car" route="N_S" depart="129.0" departLane="random" departSpeed="10" />
    <vehicle id="N_S_13" type="Car" route="N_S" depart="132.0" departLane="random" departSpeed="10" />
    <vehicle id="W_N_14" type="Car" route="W_N" depart="137.0" departLane="random" departSpeed="10" />
    <vehicle id="N_W_15" type="Bus" route="S_W" depart="137.0" departLane="random" departSpeed="10" />
    <vehicle id="E_N_16" type="Bike" route="E_N" depart="142.0" departLane="random" departSpeed="10" />
    <vehicle id="W_N_17" type="Bike" route="W_N" depart="148.0" departLane="random" departSpeed="10" />
    <vehicle id="W_E_18" type="Auto" route="W_E" depart="158.0" departLane="random" departSpeed="10" />
    <vehicle id="N_S_19" type="Car" route="N_S" depart="165.0" departLane="random" departSpeed="10" />
    <vehicle id="W_N_20" type="Car" route="W_N" depart="169.0" departLane="random" departSpeed="10" />
    <vehicle id="N_S_21" type="Bike" route="N_S" depart="192.0" departLane="random" departSpeed="10" />
    <vehicle id="W_E_22" type="Car" route="W_E" depart="193.0" departLane="random" departSpeed="10" />
    <vehicle id="W_E_23" type="Bike" route="W_E" depart="194.0" departLane="random" departSpeed="10" />
    <vehicle id="E_W_24" type="Bike" route="E_W" depart="199.0" departLane="random" departSpeed="10" />
    <vehicle id="N_S_25" type="Car" route="N_S" depart="201.0" departLane="random" departSpeed="10" />
    <vehicle id="N_W_26" type="Bike" route="S_W" depart="205.0" departLane="random" departSpeed="10" />
    <vehicle id="W_E_27" type="Car" route="W_E" depart="206.0" departLane="random" departSpeed="10" />
    <vehicle id="W_E_28" type="Auto" route="W_E" depart="212.0" departLane="random" departSpeed="10" />
    <vehicle id="N_S_29" type="Bike" route="N_S" depart="214.0" departLane="random" departSpeed="10" />
    <vehicle id="N_S_30" type="Bus" route="N_S" depart="219.0" departLane="random" departSpeed="10" />
    <vehicle id="W_S_31" type="Bike" route="E_S" depart="224.0" departLane="random" departSpeed="10" />
    <vehicle id="N_W_32" type="Car" route="S_W" depart="235.0" departLane="random" departSpeed="10" />
    <vehicle id="W_N_33" type="Bike" route="W_N" depart="243.0" departLane="random" departSpeed="10" />
    <vehicle id="N_E_34" type="Bike" route="N_E" depart="248.0" departLane="random" departSpeed="10" />
    <vehicle id="N_S_35" type="Auto" route="N_S" depart="250.0" departLane="random" departSpeed="10" />
    <vehicle id="N_E_36" type="Auto" route="N_E" depart="252.0" departLane="random" departSpeed="10" />
    <vehicle id="S_N_37" type="Auto" route="S_N" depart="253.0" departLane="random" departSpeed="10" />
    <vehicle id="W_S_38" type="Auto" route="E_S" depart="253.0" departLane="random" departSpeed="10" />
    <vehicle id="E_N_39" type="Bike" route="E_N" depart="257.0" departLane="random" departSpeed="10" />
    <vehicle id="N_S_40" type="Bike" route="N_S" depart="259.0" departLane="random" departSpeed="10" />
    <vehicle id="E_N_41" type="Bike" route="E_N" depart="264.0" departLane="random" departSpeed="10" />
    <vehicle id="W_N_42" type="Car" route="W_N" depart="269.0" departLane="random" departSpeed="10" />
    <vehicle id="W_S_43" type="Bike" route="E_S" depart="275.0" departLane="random" departSpeed="10" />
    <vehicle id="W_S_44" type="Bike" route="E_S" depart="278.0" departLane="random" departSpeed="10" />
    <vehicle id="W_N_45" type="Car" route="W_N" depart="279.0" departLane="random" departSpeed="10" />
    <vehicle id="N_S_46" type="Bike" route="N_S" depart="279.0" departLane="random" departSpeed="10" />
    <vehicle id="W_N_47" type="Bike" route="W_N" depart="280.0" departLane="random" departSpeed="10" />
    <vehicle id="S_N_48" type="Auto" route="S_N" depart="284.0" departLane="random" departSpeed="10" />
    <vehicle id="W_S_49" type="Bike" route="E_S" depart="288.0" departLane="random" departSpeed="10" />
    <vehicle id="N_E_50" type="Bus" route="N_E" depart="300.0" departLane="random" departSpeed="10" />
    <vehicle id="W_N_51" type="Bike" route="W_N" depart="301.0" departLane="random" departSpeed="10" />
    <vehicle id="W_E_52" type="Car" route="W_E" depart="306.0" departLane="random" departSpeed="10" />
    <vehicle id="N_W_53" type="Bike" route="S_W" depart="306.0" departLane="random" departSpeed="10" />
    <vehicle id="W_E_54" type="Bike" route="W_E" depart="308.0" departLane="random" departSpeed="10" />
    <vehicle id="E_N_55" type="Car" route="E_N" depart="312.0" departLane="random" departSpeed="10" />
    <vehicle id="N_W_56" type="Car" route="S_W" depart="313.0" departLane="random" departSpeed="10" />
    <vehicle id="E_S_57" type="Bike" route="W_S" depart="313.0" departLane="random" departSpeed="10" />
    <vehicle id="W_S_58" type="Bus" route="E_S" depart="315.0" departLane="random" departSpeed="10" />
    <vehicle id="W_E_59" type="Bike" route="W_E" depart="316.0" departLane="random" departSpeed="10" />
    <vehicle id="S_W_60" type="Bike" route="N_W" depart="318.0" departLane="random" departSpeed="10" />
    <vehicle id="E_S_61" type="Bike" route="W_S" depart="320.0" departLane="random" departSpeed="10" />
    <vehicle id="N_S_62" type="Auto" route="N_S" depart="322.0" departLane="random" departSpeed="10" />
    <vehicle id="N_E_63" type="Bike" route="N_E" depart="324.0" departLane="random" departSpeed="10" />
    <vehicle id="N_W_64" type="Bike" route="S_W" depart="329.0" departLane="random" departSpeed="10" />
    <vehicle id="S_N_65" type="Car" route="S_N" depart="332.0" departLane="random" departSpeed="10" />
    <vehicle id="N_W_66" type="Car" route="S_W" depart="332.0" departLane="random" departSpeed="10" />
    <vehicle id="E_W_67" type="Bike" route="E_W" depart="334.0" departLane="random" departSpeed="10" />
    <vehicle id="W_N_68" type="Bike" route="W_N" depart="335.0" departLane="random" departSpeed="10" />
    <vehicle id="S_N_69" type="Auto" route="S_N" depart="336.0" departLane="random" departSpeed="10" />
    <vehicle id="W_E_70" type="Bike" route="W_E" depart="345.0" departLane="random" departSpeed="10" />
    <vehicle id="N_W_71" type="Bike" route="S_W" depart="346.0" departLane="random" departSpeed="10" />
    <vehicle id="N_W_72" type="Car" route="S_W" depart="349.0" departLane="random" departSpeed="10" />
    <vehicle id="N_W_73" type="Car" route="S_W" depart="351.0" departLane="random" departSpeed="10" />
    <vehicle id="E_W_74" type="Auto" route="E_W" depart="353.0" departLane="random" departSpeed="10" />
    <vehicle id="E_N_75" type="Bike" route="E_N" depart="356.0" departLane="random" departSpeed="10" />
    <vehicle id="W_S_76" type="Auto" route="E_S" depart="360.0" departLane="random" departSpeed="10" />
    <vehicle id="S_W_77" type="Auto" route="N_W" depart="363.0" departLane="random" departSpeed="10" />
    <vehicle id="W_E_78" type="Auto" route="W_E" depart="363.0" departLane="random" departSpeed="10" />
    <vehicle id="N_E_79" type="Bike" route="N_E" depart="363.0" departLane="random" departSpeed="10" />
    <vehicle id="W_S_80" type="Bike" route="E_S" depart="363.0" departLane="random" departSpeed="10" />
    <vehicle id="N_S_81" type="Car" route="N_S" depart="364.0" departLane="random" departSpeed="10" />
    <vehicle id="N_W_82" type="Car" route="S_W" depart="366.0" departLane="random" departSpeed="10" />
    <vehicle id="E_W_83" type="Bike" route="E_W" depart="366.0" departLane="random" departSpeed="10" />
    <vehicle id="S_W_84" type="Car" route="N_W" depart="372.0" departLane="random" departSpeed="10" />
    <vehicle id="N_W_85" type="Bus" route="S_W" depart="373.0" departLane="random" departSpeed="10" />
    <vehicle id="N_E_86" type="Auto" route="N_E" depart="380.0" departLane="random" departSpeed="10" />
    <vehicle id="W_E_87" type="Auto" route="W_E" depart="380.0" departLane="random" departSpeed="10" />
    <vehicle id="S_N_88" type="Auto" route="S_N" depart="381.0" departLane="random" departSpeed="10" />
    <vehicle id="W_N_89" type="Bike" route="W_N" depart="381.0" departLane="random" departSpeed="10" />
    <vehicle id="W_E_90" type="Bike" route="W_E" depart="382.0" departLane="random" departSpeed="10" />
    <vehicle id="E_W_91" type="Bike" route="E_W" depart="384.0" departLane="random" departSpeed="10" />
    <vehicle id="S_N_92" type="Bike" route="S_N" depart="385.0" departLane="random" departSpeed="10" />
    <vehicle id="W_N_93" type="Bike" route="W_N" depart="386.0" departLane="random" departSpeed="10" />
    <vehicle id="S_N_94" type="Bike" route="S_N" depart="387.0" departLane="random" departSpeed="10" />
    <vehicle id="W_N_95" type="Car" route="W_N" depart="392.0" departLane="random" departSpeed="10" />
    <vehicle id="W_E_96" type="Car" route="W_E" depart="393.0" departLane="random" departSpeed="10" />
    <vehicle id="W_S_97" type="Bus" route="E_S" depart="393.0" departLane="random" departSpeed="10" />
    <vehicle id="W_S_98" type="Car" route="E_S" depart="394.0" departLane="random" departSpeed="10" />
    <vehicle id="W_S_99" type="Bus" route="E_S" depart="395.0" departLane="random" departSpeed="10" />
    <vehicle id="W_S_100" type="Bike" route="E_S" depart="395.0" departLane="random" departSpeed="10" />
    <vehicle id="W_E_101" type="Bike" route="W_E" depart="398.0" departLane="random" departSpeed="10" />
    <vehicle id="S_W_102" type="Car" route="N_W" depart="400.0" departLane="random" departSpeed="10" />
    <vehicle id="S_N_103" type="Car" route="S_N" depart="401.0" departLane="random" departSpeed="10" />
    <vehicle id="N_S_104" type="Car" route="N_S" depart="401.0" departLane="random" departSpeed="10" />
    <vehicle id="W_S_105" type="Car" route="E_S" depart="404.0" departLane="random" departSpeed="10" />
    <vehicle id="N_S_106" type="Car" route="N_S" depart="404.0" departLane="random" departSpeed="10" />
    <vehicle id="W_N_107" type="Bike" route="W_N" depart="409.0" departLane="random" departSpeed="10" />
    <vehicle id="E_N_108" type="Bus" route="E_N" depart="409.0" departLane="random" departSpeed="10" />
    <vehicle id="E_S_109" type="Bike" route="W_S" depart="411.0" departLane="random" departSpeed="10" />
    <vehicle id="W_S_110" type="Bike" route="E_S" depart="415.0" departLane="random" departSpeed="10" />
    <vehicle id="W_E_111" type="Auto" route="W_E" depart="415.0" departLane="random" departSpeed="10" />
    <vehicle id="E_N_112" type="Bike" route="E_N" depart="416.0" departLane="random" departSpeed="10" />
    <vehicle id="W_N_113" type="Bike" route="W_N" depart="417.0" departLane="random" departSpeed="10" />
    <vehicle id="S_N_114" type="Car" route="S_N" depart="423.0" departLane="random" departSpeed="10" />
    <vehicle id="W_S_115" type="Bike" route="E_S" depart="427.0" departLane="random" departSpeed="10" />
    <vehicle id="W_S_116" type="Bike" route="E_S" depart="429.0" departLane="random" departSpeed="10" />
    <vehicle id="W_S_117" type="Bike" route="E_S" depart="429.0" departLane="random" departSpeed="10" />
    <vehicle id="W_S_118" type="Car" route="E_S" depart="431.0" departLane="random" departSpeed="10" />
    <vehicle id="W_N_119" type="Car" route="W_N" depart="432.0" departLane="random" departSpeed="10" />
    <vehicle id="S_N_120" type="Car" route="S_N" depart="432.0" departLane="random" departSpeed="10" />
    <vehicle id="W_S_121" type="Bus" route="E_S" depart="440.0" departLane="random" departSpeed="10" />
    <vehicle id="N_E_122" type="Bike" route="N_E" depart="441.0" departLane="random" departSpeed="10" />
    <vehicle id="N_E_123" type="Car" route="N_E" depart="441.0" departLane="random" departSpeed="10" />
    <vehicle id="W_E_124" type="Auto" route="W_E" depart="442.0" departLane="random" departSpeed="10" />
    <vehicle id="E_N_125" type="Bike" route="E_N" depart="443.0" departLane="random" departSpeed="10" />
    <vehicle id="W_N_126" type="Auto" route="W_N" depart="447.0" departLane="random" departSpeed="10" />
    <vehicle id="S_N_127" type="Bike" route="S_N" depart="450.0" departLane="random" departSpeed="10" />
    <vehicle id="S_N_128" type="Bike" route="S_N" depart="450.0" departLane="random" departSpeed="10" />
    <vehicle id="E_N_129" type="Car" route="E_N" depart="455.0" departLane="random" departSpeed="10" />
    <vehicle id="E_W_130" type="Bike" route="E_W" depart="456.0" departLane="random" departSpeed="10" />
    <vehicle id="W_S_131" type="Bike" route="E_S" depart="456.0" departLane="random" departSpeed="10" />
    <vehicle id="S_W_132" type="Bike" route="N_W" depart="457.0" departLane="random" departSpeed="10" />
    <vehicle id="S_N_133" type="Bike" route="S_N" depart="461.0" departLane="random" departSpeed="10" />
    <vehicle id="W_S_134" type="Car" route="E_S" depart="461.0" departLane="random" departSpeed="10" />
    <vehicle id="W_N_135" type="Car" route="W_N" depart="465.0" departLane="random" departSpeed="10" />
    <vehicle id="S_N_136" type="Bike" route="S_N" depart="466.0" departLane="random" departSpeed="10" />
    <vehicle id="W_S_137" type="Bike" route="E_S" depart="466.0" departLane="random" departSpeed="10" />
    <vehicle id="E_N_138" type="Bike" route="E_N" depart="467.0" departLane="random" departSpeed="10" />
    <vehicle id="N_E_139" type="Bike" route="N_E" depart="469.0" departLane="random" departSpeed="10" />
    <vehicle id="W_E_140" type="Car" route="W_E" depart="480.0" departLane="random" departSpeed="10" />
    <vehicle id="N_W_141" type="Bike" route="S_W" depart="484.0" departLane="random" departSpeed="10" />
    <vehicle id="W_S_142" type="Bike" route="E_S" depart="491.0" departLane="random" departSpeed="10" />
    <vehicle id="E_N_143" type="Auto" route="E_N" depart="491.0" departLane="random" departSpeed="10" />
    <vehicle id="S_W_144" type="Auto" route="N_W" depart="492.0" departLane="random" departSpeed="10" />
    <vehicle id="S_N_145" type="Car" route="S_N" depart="494.0" departLane="random" departSpeed="10" />
    <vehicle id="E_N_146" type="Bike" route="E_N" depart="497.0" departLane="random" departSpeed="10" />
    <vehicle id="W_N_147" type="Car" route="W_N" depart="498.0" departLane="random" departSpeed="10" />
    <vehicle id="N_E_148" type="Car" route="N_E" depart="498.0" departLane="random" departSpeed="10" />
    <vehicle id="E_N_149" type="Car" route="E_N" depart="501.0" departLane="random" departSpeed="10" />
    <vehicle id="N_E_150" type="Bike" route="N_E" depart="503.0" departLane="random" departSpeed="10" />
    <vehicle id="S_N_151" type="Car" route="S_N" depart="504.0" departLane="random" departSpeed="10" />
    <vehicle id="W_S_152" type="Auto" route="E_S" depart="505.0" departLane="random" departSpeed="10" />
    <vehicle id="N_W_153" type="Car" route="S_W" depart="505.0" departLane="random" departSpeed="10" />
    <vehicle id="S_N_154" type="Bus" route="S_N" depart="505.0" departLane="random" departSpeed="10" />
    <vehicle id="E_W_155" type="Auto" route="E_W" depart="509.0" departLane="random" departSpeed="10" />
    <vehicle id="E_S_156" type="Bike" route="W_S" depart="509.0" departLane="random" departSpeed="10" />
    <vehicle id="S_E_157" type="Bike" route="S_E" depart="515.0" departLane="random" departSpeed="10" />
    <vehicle id="N_E_158" type="Bike" route="N_E" depart="516.0" departLane="random" departSpeed="10" />
    <vehicle id="N_E_159" type="Bike" route="N_E" depart="517.0" departLane="random" departSpeed="10" />
    <vehicle id="E_W_160" type="Bike" route="E_W" depart="518.0" departLane="random" departSpeed="10" />
    <vehicle id="W_S_161" type="Car" route="E_S" depart="519.0" departLane="random" departSpeed="10" />
    <vehicle id="S_N_162" type="Car" route="S_N" depart="519.0" departLane="random" departSpeed="10" />
    <vehicle id="W_E_163" type="Auto" route="W_E" depart="521.0" departLane="random" departSpeed="10" />
    <vehicle id="N_W_164" type="Bike" route="S_W" depart="521.0" departLane="random" departSpeed="10" />
    <vehicle id="S_N_165" type="Bike" route="S_N" depart="525.0" departLane="random" departSpeed="10" />
    <vehicle id="E_W_166" type="Car" route="E_W" depart="527.0" departLane="random" departSpeed="10" />
    <vehicle id="S_N_167" type="Car" route="S_N" depart="528.0" departLane="random" departSpeed="10" />
    <vehicle id="N_W_168" type="Car" route="S_W" depart="529.0" departLane="random" departSpeed="10" />
    <vehicle id="E_N_169" type="Bike" route="E_N" depart="531.0" departLane="random" departSpeed="10" />
    <vehicle id="W_N_170" type="Car" route="W_N" depart="532.0" departLane="random" departSpeed="10" />
    <vehicle id="S_N_171" type="Bike" route="S_N" depart="534.0" departLane="random" departSpeed="10" />
    <vehicle id="N_E_172" type="Bike" route="N_E" depart="535.0" departLane="random" departSpeed="10" />
    <vehicle id="N_E_173" type="Bike" route="N_E" depart="535.0" departLane="random" departSpeed="10" />
    <vehicle id="E_W_174" type="Bike" route="E_W" depart="536.0" departLane="random" departSpeed="10" />
    <vehicle id="W_N_175" type="Car" route="W_N" depart="536.0" departLane="random" departSpeed="10" />
    <vehicle id="W_N_176" type="Bike" route="W_N" depart="537.0" departLane="random" departSpeed="10" />
    <vehicle id="W_N_177" type="Bus" route="W_N" depart="538.0" departLane="random" departSpeed="10" />
    <vehicle id="E_W_178" type="Car" route="E_W" depart="542.0" departLane="random" departSpeed="10" />
    <vehicle id="W_N_179" type="Bike" route="W_N" depart="542.0" departLane="random" departSpeed="10" />
    <vehicle id="N_E_180" type="Bike" route="N_E" depart="543.0" departLane="random" departSpeed="10" />
    <vehicle id="S_N_181" type="Auto" route="S_N" depart="543.0" departLane="random" departSpeed="10" />
    <vehicle id="S_N_182" type="Bike" route="S_N" depart="545.0" departLane="random" departSpeed="10" />
    <vehicle id="N_E_183" type="Bike" route="N_E" depart="546.0" departLane="random" departSpeed="10" />
    <vehicle id="S_N_184" type="Bike" route="S_N" depart="557.0" departLane="random" departSpeed="10" />
    <vehicle id="N_W_185" type="Car" route="S_W" depart="559.0" departLane="random" departSpeed="10" />
    <vehicle id="S_E_186" type="Bike" route="S_E" depart="559.0" departLane="random" departSpeed="10" />
    <vehicle id="W_S_187" type="Bike" route="E_S" depart="561.0" departLane="random" departSpeed="10" />
    <vehicle id="S_E_188" type="Car" route="S_E" depart="562.0" departLane="random" departSpeed="10" />
    <vehicle id="N_E_189" type="Bike" route="N_E" depart="562.0" departLane="random" departSpeed="10" />
    <vehicle id="N_S_190" type="Bus" route="N_S" depart="564.0" departLane="random" departSpeed="10" />
    <vehicle id="W_N_191" type="Car" route="W_N" depart="564.0" departLane="random" departSpeed="10" />
    <vehicle id="N_S_192" type="Car" route="N_S" depart="564.0" departLane="random" departSpeed="10" />
    <vehicle id="W_N_193" type="Bike" route="W_N" depart="565.0" departLane="random" departSpeed="10" />
    <vehicle id="N_S_194" type="Auto" route="N_S" depart="565.0" departLane="random" departSpeed="10" />
    <vehicle id="W_S_195" type="Car" route="E_S" depart="567.0" departLane="random" departSpeed="10" />
    <vehicle id="W_N_196" type="Bike" route="W_N" depart="568.0" departLane="random" departSpeed="10" />
    <vehicle id="N_S_197" type="Car" route="N_S" depart="570.0" departLane="random" departSpeed="10" />
    <vehicle id="N_W_198" type="Bike" route="S_W" depart="571.0" departLane="random" departSpeed="10" />
    <vehicle id="W_N_199" type="Auto" route="W_N" depart="571.0" departLane="random" departSpeed="10" />
    <vehicle id="W_S_200" type="Bike" route="E_S" depart="571.0" departLane="random" departSpeed="10" />
    <vehicle id="E_W_201" type="Bike" route="E_W" depart="573.0" departLane="random" departSpeed="10" />
    <vehicle id="W_N_202" type="Car" route="W_N" depart="574.0" departLane="random" departSpeed="10" />
    <vehicle id="W_E_203" type="Bike" route="W_E" depart="576.0" departLane="random" departSpeed="10" />
    <vehicle id="E_W_204" type="Bike" route="E_W" depart="576.0" departLane="random" departSpeed="10" />
    <vehicle id="W_S_205" type="Car" route="E_S" depart="578.0" departLane="random" departSpeed="10" />
    <vehicle id="N_W_206" type="Bike" route="S_W" depart="578.0" departLane="random" departSpeed="10" />
    <vehicle id="E_W_207" type="Bike" route="E_W" depart="579.0" departLane="random" departSpeed="10" />
    <vehicle id="N_W_208" type="Bike" route="S_W" depart="580.0" departLane="random" departSpeed="10" />
    <vehicle id="E_W_209" type="Car" route="E_W" depart="584.0" departLane="random" departSpeed="10" />
    <vehicle id="N_W_210" type="Bike" route="S_W" depart="585.0" departLane="random" departSpeed="10" />
    <vehicle id="W_N_211" type="Auto" route="W_N" depart="589.0" departLane="random" departSpeed="10" />
    <vehicle id="E_W_212" type="Bike" route="E_W" depart="589.0" departLane="random" departSpeed="10" />
    <vehicle id="N_W_213" type="Bike" route="S_W" depart="590.0" departLane="random" departSpeed="10" />
    <vehicle id="W_N_214" type="Auto" route="W_N" depart="590.0" departLane="random" departSpeed="10" />
    <vehicle id="W_E_215" type="Bike" route="W_E" depart="591.0" departLane="random" departSpeed="10" />
    <vehicle id="W_S_216" type="Bike" route="E_S" depart="592.0" departLane="random" departSpeed="10" />
    <vehicle id="N_W_217" type="Auto" route="S_W" depart="593.0" departLane="random" departSpeed="10" />
    <vehicle id="N_E_218" type="Bike" route="N_E" depart="594.0" departLane="random" departSpeed="10" />
    <vehicle id="S_N_219" type="Car" route="S_N" depart="596.0" departLane="random" departSpeed="10" />
    <vehicle id="N_W_220" type="Car" route="S_W" depart="596.0" departLane="random" departSpeed="10" />
    <vehicle id="W_N_221" type="Bike" route="W_N" depart="596.0" departLane="random" departSpeed="10" />
    <vehicle id="N_W_222" type="Bike" route="S_W" depart="599.0" departLane="random" departSpeed="10" />
    <vehicle id="S_N_223" type="Bike" route="S_N" depart="599.0" departLane="random" departSpeed="10" />
    <vehicle id="E_W_224" type="Bike" route="E_W" depart="599.0" departLane="random" departSpeed="10" />
    <vehicle id="W_N_225" type="Bus" route="W_N" depart="599.0" departLane="random" departSpeed="10" />
    <vehicle id="E_W_226" type="Bike" route="E_W" depart="600.0" departLane="random" departSpeed="10" />
    <vehicle id="W_S_227" type="Bike" route="E_S" depart="601.0" departLane="random" departSpeed="10" />
    <vehicle id="N_E_228" type="Bike" route="N_E" depart="604.0" departLane="random" departSpeed="10" />
    <vehicle id="W_S_229" type="Car" route="E_S" depart="604.0" departLane="random" departSpeed="10" />
    <vehicle id="N_S_230" type="Bike" route="N_S" depart="606.0" departLane="random" departSpeed="10" />
    <vehicle id="W_E_231" type="Car" route="W_E" depart="607.0" departLane="random" departSpeed="10" />
    <vehicle id="W_N_232" type="Bike" route="W_N" depart="610.0" departLane="random" departSpeed="10" />
    <vehicle id="W_N_233" type="Bike" route="W_N" depart="611.0" departLane="random" departSpeed="10" />
    <vehicle id="S_W_234" type="Bike" route="N_W" depart="611.0" departLane="random" departSpeed="10" />
    <vehicle id="E_W_235" type="Bike" route="E_W" depart="613.0" departLane="random" departSpeed="10" />
    <vehicle id="N_W_236" type="Bike" route="S_W" depart="616.0" departLane="random" departSpeed="10" />
    <vehicle id="N_E_237" type="Car" route="N_E" depart="617.0" departLane="random" departSpeed="10" />
    <vehicle id="W_S_238" type="Bike" route="E_S" depart="618.0" departLane="random" departSpeed="10" />
    <vehicle id="W_S_239" type="Bike" route="E_S" depart="618.0" departLane="random" departSpeed="10" />
    <vehicle id="N_W_240" type="Bike" route="S_W" depart="622.0" departLane="random" departSpeed="10" />
    <vehicle id="N_S_241" type="Bike" route="N_S" depart="626.0" departLane="random" departSpeed="10" />
    <vehicle id="W_E_242" type="Bike" route="W_E" depart="627.0" departLane="random" departSpeed="10" />
    <vehicle id="N_W_243" type="Car" route="S_W" depart="629.0" departLane="random" departSpeed="10" />
    <vehicle id="W_N_244" type="Bike" route="W_N" depart="633.0" departLane="random" departSpeed="10" />
    <vehicle id="N_W_245" type="Bike" route="S_W" depart="633.0" departLane="random" departSpeed="10" />
    <vehicle id="S_N_246" type="Auto" route="S_N" depart="633.0" departLane="random" departSpeed="10" />
    <vehicle id="N_S_247" type="Auto" route="N_S" depart="633.0" departLane="random" departSpeed="10" />
    <vehicle id="E_S_248" type="Bike" route="W_S" depart="634.0" departLane="random" departSpeed="10" />
    <vehicle id="S_E_249" type="Car" route="S_E" depart="636.0" departLane="random" departSpeed="10" />
    <vehicle id="N_E_250" type="Bike" route="N_E" depart="637.0" departLane="random" departSpeed="10" />
    <vehicle id="W_E_251" type="Auto" route="W_E" depart="638.0" departLane="random" departSpeed="10" />
    <vehicle id="W_N_252" type="Bus" route="W_N" depart="639.0" departLane="random" departSpeed="10" />
    <vehicle id="S_W_253" type="Bike" route="N_W" depart="640.0" departLane="random" departSpeed="10" />
    <vehicle id="N_E_254" type="Bike" route="N_E" depart="641.0" departLane="random" departSpeed="10" />
    <vehicle id="E_W_255" type="Bus" route="E_W" depart="642.0" departLane="random" departSpeed="10" />
    <vehicle id="N_S_256" type="Car" route="N_S" depart="646.0" departLane="random" departSpeed="10" />
    <vehicle id="W_S_257" type="Bike" route="E_S" depart="648.0" departLane="random" departSpeed="10" />
    <vehicle id="W_E_258" type="Bike" route="W_E" depart="649.0" departLane="random" departSpeed="10" />
    <vehicle id="S_W_259" type="Bike" route="N_W" depart="650.0" departLane="random" departSpeed="10" />
    <vehicle id="E_W_260" type="Car" route="E_W" depart="651.0" departLane="random" departSpeed="10" />
    <vehicle id="S_W_261" type="Car" route="N_W" depart="652.0" departLane="random" departSpeed="10" />
    <vehicle id="W_N_262" type="Bike" route="W_N" depart="653.0" departLane="random" departSpeed="10" />
    <vehicle id="W_S_263" type="Bike" route="E_S" depart="656.0" departLane="random" departSpeed="10" />
    <vehicle id="N_E_264" type="Bus" route="N_E" depart="658.0" departLane="random" departSpeed="10" />
    <vehicle id="N_W_265" type="Auto" route="S_W" depart="658.0" departLane="random" departSpeed="10" />
    <vehicle id="S_E_266" type="Car" route="S_E" depart="660.0" departLane="random" departSpeed="10" />
    <vehicle id="N_E_267" type="Bike" route="N_E" depart="660.0" departLane="random" departSpeed="10" />
    <vehicle id="N_S_268" type="Car" route="N_S" depart="664.0" departLane="random" departSpeed="10" />
    <vehicle id="N_W_269" type="Bike" route="S_W" depart="665.0" departLane="random" departSpeed="10" />
    <vehicle id="E_N_270" type="Bike" route="E_N" depart="667.0" departLane="random" departSpeed="10" />
    <vehicle id="N_E_271" type="Bike" route="N_E" depart="668.0" departLane="random" departSpeed="10" />
    <vehicle id="E_S_272" type="Car" route="W_S" depart="668.0" departLane="random" departSpeed="10" />
    <vehicle id="S_W_273" type="Bike" route="N_W" depart="669.0" departLane="random" departSpeed="10" />
    <vehicle id="S_N_274" type="Bike" route="S_N" depart="672.0" departLane="random" departSpeed="10" />