
            <routes>
                <vType guiShape="passenger/hatchback" accel="1.0" decel="4.0" id="Car" color="white" width="2.5" length="4.0" minGap="1.0" maxSpeed="80.0" sigma="0.2"/>
                <vType guiShape="bus" accel="0.5" decel="5.0" id="Bus" color="blue" width="3.5" length="6.0" minGap="1.0" maxSpeed="40.0" sigma="0.3"/>
                <vType guiShape="motorcycle" accel="1.0" decel="4.0" id="Bike" color="green" width="1.5" length="2.0" minGap="1.0" maxSpeed="60.0" sigma="0.6"/>
                <vType guiShape="evehicle" accel="1.0" decel="4.0" id="Auto" color="yellow" width="2.0" length="3.0" minGap="1.0" maxSpeed="50.0" sigma="0.6"/>
                
                <route id="W_N" edges="W2TL TL2N"/>
                <route id="W_E" edges="W2TL TL2E"/>
                <route id="W_S" edges="W2TL TL2S"/>
                <route id="N_W" edges="N2TL TL2W"/>
                <route id="N_E" edges="N2TL TL2E"/>
                <route id="N_S" edges="N2TL TL2S"/>
                <route id="E_W" edges="E2TL TL2W"/>
                <route id="E_N" edges="E2TL TL2N"/>
                <route id="E_S" edges="E2TL TL2S"/>
                <route id="S_W" edges="S2TL TL2W"/>
                <route id="S_N" edges="S2TL TL2N"/>
                <route id="S_E" edges="S2TL TL2E"/>
    <vehicle id="N_S_0" type="Bike" route="N_S" depart="28.0" departLane="random" departSpeed="10" />
    <vehicle id="N_W_1" type="Auto" route="S_W" depart="45.0" departLane="random" departSpeed="10" />
    <vehicle id="S_N_2" type="Bike" route="S_N" depart="62.0" departLane="random" departSpeed="10" />
    <vehicle id="W_E_3" type="Car" route="W_E" depart="75.0" departLane="random" departSpeed="10" />
    <vehicle id="W_E_4" type="Car" route="W_E" depart="82.0" departLane="random" departSpeed="10" />
    <vehicle id="W_N_5" type="Car" route="W_N" depart="86.0" departLane="random" departSpeed="10" />
    <vehicle id="W_S_6" type="Car" route="E_S" depart="107.0" departLane="random" departSpeed="10" />
    <vehicle id="N_W_7" type="Bike" route="S_W" depart="129.0" departLane="random" departSpeed="10" />
    <vehicle id="W_S_8" type="Bike" route="E_S" depart="130.0" departLane="random" departSpeed="10" />
    <vehicle id="N_S_9" type="Car" route="N_S" depart="132.0" departLane="random" departSpeed="10" />
    <vehicle id="W_E_10" type="Bike" route="W_E" depart="133.0" departLane="random" departSpeed="10" />
    <vehicle id="W_E_11" type="Bike" route="W_E" depart="139.0" departLane="random" departSpeed="10" />
    <vehicle id="N_S_12" type="Bike" route="N_S" depart="150.0" departLane="random" departSpeed="10" />
    <vehicle id="N_E_13" type="Bike" route="N_E" depart="154.0" departLane="random" departSpeed="10" />
    <vehicle id="W_N_14" type="Bus" route="W_N" depart="154.0" departLane="random" departSpeed="10" />
    <vehicle id="E_W_15" type="Bus" route="E_W" depart="157.0" departLane="random" departSpeed="10" />
    <vehicle id="E_N_16" type="Auto" route="E_N" depart="164.0" departLane="random" departSpeed="10" />
    <vehicle id="W_N_17" type="Car" route="W_N" depart="165.0" departLane="random" departSpeed="10" />
    <vehicle id="S_N_18" type="Bike" route="S_N" depart="167.0" departLane="random" departSpeed="10" />
    <vehicle id="S_N_19" type="Auto" route="S_N" depart="167.0" departLane="random" departSpeed="10" />
    <vehicle id="N_E_20" type="Bike" route="N_E" depart="171.0" departLane="random" departSpeed="10" />
    <vehicle id="E_S_21" type="Bike" route="W_S" depart="172.0" departLane="random" departSpeed="10" />
    <vehicle id="S_W_22" type="Car" route="N_W" depart="173.0" departLane="random" departSpeed="10" />
    <vehicle id="N_W_23" type="Car" route="S_W" depart="188.0" departLane="random" departSpeed="10" />
    <vehicle id="N_W_24" type="Car" route="S_W" depart="190.0" departLane="random" departSpeed="10" />
    <vehicle id="N_W_25" type="Bike" route="S_W" depart="193.0" departLane="random" departSpeed="10" />
    <vehicle id="N_E_26" type="Bike" route="N_E" depart="206.0" departLane="random" departSpeed="10" />
    <vehicle id="E_N_27" type="Auto" route="E_N" depart="207.0" departLane="random" departSpeed="10" />
    <vehicle id="N_W_28" type="Bike" route="S_W" depart="209.0" departLane="random" departSpeed="10" />
    <vehicle id="W_N_29" type="Bike" route="W_N" depart="210.0" departLane="random" departSpeed="10" />
    <vehicle id="N_E_30" type="Car" route="N_E" depart="216.0" departLane="random" departSpeed="10" />
    <vehicle id="E_W_31" type="Auto" route="E_W" depart="220.0" departLane="random" departSpeed="10" />
    <vehicle id="N_W_32" type="Bus" route="S_W" depart="221.0" departLane="random" departSpeed="10" />
    <vehicle id="E_S_33" type="Auto" route="W_S" depart="228.0" departLane="random" departSpeed="10" />
    <vehicle id="N_E_34" type="Car" route="N_E" depart="230.0" departLane="random" departSpeed="10" />
    <vehicle id="N_S_35" type="Auto" route="N_S" depart="238.0" departLane="random" departSpeed="10" />
    <vehicle id="W_N_36" type="Car" route="W_N" depart="240.0" departLane="random" departSpeed="10" />
    <vehicle id="N_S_37" type="Auto" route="N_S" depart="241.0" departLane="random" departSpeed="10" />
    <vehicle id="E_S_38" type="Bike" route="W_S" depart="242.0" departLane="random" departSpeed="10" />
    <vehicle id="W_E_39" type="Car" route="W_E" depart="251.0" departLane="random" departSpeed="10" />
    <vehicle id="W_N_40" type="Auto" route="W_N" depart="256.0" departLane="random" departSpeed="10" />
    <vehicle id="N_W_41" type="Bike" route="S_W" depart="260.0" departLane="random" departSpeed="10" />
    <vehicle id="E_W_42" type="Auto" route="E_W" depart="263.0" departLane="random" departSpeed="10" />
    <vehicle id="W_E_43" type="Bike" route="W_E" depart="268.0" departLane="random" departSpeed="10" />
    <vehicle id="N_S_44" type="Bike" route="N_S" depart="270.0" departLane="random" departSpeed="10" />
    <vehicle id="W_S_45" type="Car" route="E_S" depart="281.0" departLane="random" departSpeed="10" />
    <vehicle id="N_S_46" type="Bike" route="N_S" depart="284.0" departLane="random" departSpeed="10" />
    <vehicle id="W_E_47" type="Car" route="W_E" depart="286.0" departLane="random" departSpeed="10" />
    <vehicle id="N_W_48" type="Bike" route="S_W" depart="290.0" departLane="random" departSpeed="10" />
    <vehicle id="N_E_49" type="Car" route="N_E" depart="290.0" departLane="random" departSpeed="10" />
    <vehicle id="N_S_50" type="Auto" route="N_S" depart="293.0" departLane="random" departSpeed="10" />
    <vehicle id="E_W_51" type="Auto" route="E_W" depart="294.0" departLane="random" departSpeed="10" />
    <vehicle id="N_S_52" type="Bike" route="N_S" depart="295.0" departLane="random" departSpeed="10" />
    <vehicle id="S_N_53" type="Bike" route="S_N" depart="297.0" departLane="random" departSpeed="10" />
    <vehicle id="N_W_54" type="Car" route="S_W" depart="298.0" departLane="random" departSpeed="10" />
    <vehicle id="S_N_55" type="Bike" route="S_N" depart="299.0" departLane="random" departSpeed="10" />
    <vehicle id="N_W_56" type="Bike" route="S_W" depart="301.0" departLane="random" departSpeed="10" />
    <vehicle id="W_N_57" type="Bike" route="W_N" depart="305.0" departLane="random" departSpeed="10" />
    <vehicle id="N_S_58" type="Auto" route="N_S" depart="305.0" departLane="random" departSpeed="10" />
    <vehicle id="E_N_59" type="Bus" route="E_N" depart="307.0" departLane="random" departSpeed="10" />
    <vehicle id="S_N_60" type="Car" route="S_N" depart="307.0" departLane="random" departSpeed="10" />
    <vehicle id="W_S_61" type="Car" route="E_S" depart="309.0" departLane="random" departSpeed="10" />
    <vehicle id="W_N_62" type="Bike" route="W_N" depart="309.0" departLane="random" departSpeed="10" />
    <vehicle id="N_E_63" type="Car" route="N_E" depart="312.0" departLane="random" departSpeed="10" />
    <vehicle id="N_S_64" type="Bus" route="N_S" depart="313.0" departLane="random" departSpeed="10" />
    <vehicle id="W_S_65" type="Bus" route="E_S" depart="314.0" departLane="random" departSpeed="10" />
    <vehicle id="N_E_66" type="Auto" route="N_E" depart="317.0" departLane="random" departSpeed="10" />
    <vehicle id="N_E_67" type="Bike" route="N_E" depart="319.0" departLane="random" departSpeed="10" />
    <vehicle id="E_N_68" type="Car" route="E_N" depart="321.0" departLane="random" departSpeed="10" />
    <vehicle id="N_E_69" type="Car" route="N_E" depart="321.0" departLane="random" departSpeed="10" />
    <vehicle id="N_E_70" type="Car" route="N_E" depart="321.0" departLane="random" departSpeed="10" />
    <vehicle id="E_W_71" type="Bike" route="E_W" depart="323.0" departLane="random" departSpeed="10" />
    <vehicle id="N_W_72" type="Car" route="S_W" depart="325.0" departLane="random" departSpeed="10" />
    <vehicle id="N_S_73" type="Bike" route="N_S" depart="326.0" departLane="random" departSpeed="10" />
    <vehicle id="S_N_74" type="Bike" route="S_N" depart="336.0" departLane="random" departSpeed="10" />
    <vehicle id="E_W_75" type="Bus" route="E_W" depart="338.0" departLane="random" departSpeed="10" />
    <vehicle id="N_W_76" type="Car" route="S_W" depart="340.0" departLane="random" departSpeed="10" />
    <vehicle id="W_E_77" type="Bike" route="W_E" depart="345.0" departLane="random" departSpeed="10" />
    <vehicle id="E_W_78" type="Bus" route="E_W" depart="348.0" departLane="random" departSpeed="10" />
    <vehicle id="S_N_79" type="Bike" route="S_N" depart="349.0" departLane="random" departSpeed="10" />
    <vehicle id="N_E_80" type="Bike" route="N_E" depart="350.0" departLane="random" departSpeed="10" />
    <vehicle id="S_N_81" type="Car" route="S_N" depart="354.0" departLane="random" departSpeed="10" />
    <vehicle id="N_S_82" type="Bike" route="N_S" depart="358.0" departLane="random" departSpeed="10" />
    <vehicle id="E_W_83" type="Bike" route="E_W" depart="362.0" departLane="random" departSpeed="10" />
    <vehicle id="W_N_84" type="Bike" route="W_N" depart="367.0" departLane="random" departSpeed="10" />
    <vehicle id="E_W_85" type="Car" route="E_W" depart="368.0" departLane="random" departSpeed="10" />
    <vehicle id="E_S_86" type="Bike" route="W_S" depart="370.0" departLane="random" departSpeed="10" />
    <vehicle id="N_W_87" type="Auto" route="S_W" depart="377.0" departLane="random" departSpeed="10" />
    <vehicle id="N_E_88" type="Bike" route="N_E" depart="381.0" departLane="random" departSpeed="10" />
    <vehicle id="N_S_89" type="Car" route="N_S" depart="382.0" departLane="random" departSpeed="10" />
    <vehicle id="N_W_90" type="Bike" route="S_W" depart="383.0" departLane="random" departSpeed="10" />
    <vehicle id="N_S_91" type="Bike" route="N_S" depart="384.0" departLane="random" departSpeed="10" />
    <vehicle id="S_N_92" type="Bike" route="S_N" depart="384.0" departLane="random" departSpeed="10" />
    <vehicle id="N_S_93" type="Bike" route="N_S" depart="384.0" departLane="random" departSpeed="10" />
    <vehicle id="E_W_94" type="Car" route="E_W" depart="385.0" departLane="random" departSpeed="10" />
    <vehicle id="W_N_95" type="Bike" route="W_N" depart="385.0" departLane="random" departSpeed="10" />
    <vehicle id="N_S_96" type="Bike" route="N_S" depart="389.0" departLane="random" departSpeed="10" />
    <vehicle id="E_W_97" type="Bike" route="E_W" depart="389.0" departLane="random" departSpeed="10" />
    <vehicle id="N_W_98" type="Car" route="S_W" depart="390.0" departLane="random" departSpeed="10" />
    <vehicle id="N_W_99" type="Bike" route="S_W" depart="390.0" departLane="random" departSpeed="10" />
    <vehicle id="N_W_100" type="Bike" route="S_W" depart="390.0" departLane="random" departSpeed="10" />
    <vehicle id="N_W_101" type="Bike" route="S_W" depart="394.0" departLane="random" departSpeed="10" />
    <vehicle id="S_N_102" type="Car" route="S_N" depart="394.0" departLane="random" departSpeed="10" />
    <vehicle id="S_N_103" type="Bus" route="S_N" depart="396.0" departLane="random" departSpeed="10" />
    <vehicle id="W_S_104" type="Auto" route="E_S" depart="399.0" departLane="random" departSpeed="10" />
    <vehicle id="S_N_105" type="Bike" route="S_N" depart="401.0" departLane="random" departSpeed="10" />
    <vehicle id="W_E_106" type="Car" route="W_E" depart="404.0" departLane="random" departSpeed="10" />
    <vehicle id="W_N_107" type="Car" route="W_N" depart="404.0" departLane="random" departSpeed="10" />
    <vehicle id="N_W_108" type="Car" route="S_W" depart="405.0" departLane="random" departSpeed="10" />
    <vehicle id="E_W_109" type="Car" route="E_W" depart="409.0" departLane="random" departSpeed="10" />
    <vehicle id="W_S_110" type="Bike" route="E_S" depart="410.0" departLane="random" departSpeed="10" />
    <vehicle id="W_S_111" type="Bike" route="E_S" depart="411.0" departLane="random" departSpeed="10" />
    <vehicle id="E_N_112" type="Bike" route="E_N" depart="413.0" departLane="random" departSpeed="10" />
    <vehicle id="N_W_113" type="Bike" route="S_W" depart="414.0" departLane="random" departSpeed="10" />
    <vehicle id="N_E_114" type="Bike" route="N_E" depart="420.0" departLane="random" departSpeed="10" />
    <vehicle id="W_N_115" type="Bike" route="W_N" depart="421.0" departLane="random" departSpeed="10" />
    <vehicle id="N_S_116" type="Car" route="N_S" depart="421.0" departLane="random" departSpeed="10" />
    <vehicle id="E_W_117" type="Car" route="E_W" depart="421.0" departLane="random" departSpeed="10" />
    <vehicle id="W_S_118" type="Bike" route="E_S" depart="421.0" departLane="random" departSpeed="10" />
    <vehicle id="E_S_119" type="Bike" route="W_S" depart="424.0" departLane="random" departSpeed="10" />
    <vehicle id="W_S_120" type="Bus" route="E_S" depart="424.0" departLane="random" departSpeed="10" />
    <vehicle id="E_S_121" type="Bike" route="W_S" depart="424.0" departLane="random" departSpeed="10" />
    <vehicle id="W_S_122" type="Car" route="E_S" depart="424.0" departLane="random" departSpeed="10" />
    <vehicle id="W_N_123" type="Bike" route="W_N" depart="424.0" departLane="random" departSpeed="10" />
    <vehicle id="W_S_124" type="Car" route="E_S" depart="426.0" departLane="random" departSpeed="10" />
    <vehicle id="N_E_125" type="Bike" route="N_E" depart="427.0" departLane="random" departSpeed="10" />
    <vehicle id="S_N_126" type="Car" route="S_N" depart="429.0" departLane="random" departSpeed="10" />
    <vehicle id="W_N_127" type="Car" route="W_N" depart="429.0" departLane="random" departSpeed="10" />
    <vehicle id="W_S_128" type="Auto" route="E_S" depart="436.0" departLane="random" departSpeed="10" />
    <vehicle id="N_E_129" type="Car" route="N_E" depart="446.0" departLane="random" departSpeed="10" />
    <vehicle id="W_E_130" type="Bike" route="W_E" depart="446.0" departLane="random" departSpeed="10" />
    <vehicle id="W_S_131" type="Bike" route="E_S" depart="450.0" departLane="random" departSpeed="10" />
    <vehicle id="W_S_132" type="Car" route="E_S" depart="450.0" departLane="random" departSpeed="10" />
    <vehicle id="S_N_133" type="Auto" route="S_N" depart="451.0" departLane="random" departSpeed="10" />
    <vehicle id="W_E_134" type="Car" route="W_E" depart="451.0" departLane="random" departSpeed="10" />
    <vehicle id="W_S_135" type="Auto" route="E_S" depart="452.0" departLane="random" departSpeed="10" />
    <vehicle id="W_E_136" type="Bike" route="W_E" depart="452.0" departLane="random" departSpeed="10" />
    <vehicle id="W_S_137" type="Car" route="E_S" depart="454.0" departLane="random" departSpeed="10" />
    <vehicle id="E_S_138" type="Bus" route="W_S" depart="454.0" departLane="random" departSpeed="10" />
    <vehicle id="N_E_139" type="Bike" route="N_E" depart="458.0" departLane="random" departSpeed="10" />
    <vehicle id="W_E_140" type="Bike" route="W_E" depart="460.0" departLane="random" departSpeed="10" />
    <vehicle id="S_W_141" type="Bike" route="N_W" depart="463.0" departLane="random" departSpeed="10" />
    <vehicle id="W_N_142" type="Auto" route="W_N" depart="464.0" departLane="random" departSpeed="10" />
    <vehicle id="E_W_143" type="Bike" route="E_W" depart="467.0" departLane="random" departSpeed="10" />
    <vehicle id="E_W_144" type="Bus" route="E_W" depart="467.0" departLane="random" departSpeed="10" />
    <vehicle id="W_N_145" type="Car" route="W_N" depart="469.0" departLane="random" departSpeed="10" />
    <vehicle id="E_S_146" type="Bike" route="W_S" depart="472.0" departLane="random" departSpeed="10" />
    <vehicle id="S_N_147" type="Bike" route="S_N" depart="475.0" departLane="random" departSpeed="10" />
    <vehicle id="S_E_148" type="Bike" route="S_E" depart="478.0" departLane="random" departSpeed="10" />
    <vehicle id="S_N_149" type="Bus" route="S_N" depart="480.0" departLane="random" departSpeed="10" />
    <vehicle id="W_N_150" type="Bike" route="W_N" depart="480.0" departLane="random" departSpeed="10" />
    <vehicle id="W_S_151" type="Bike" route="E_S" depart="480.0" departLane="random" departSpeed="10" />
    <vehicle id="S_N_152" type="Bike" route="S_N" depart="481.0" departLane="random" departSpeed="10" />
    <vehicle id="E_W_153" type="Bike" route="E_W" depart="483.0" departLane="random" departSpeed="10" />
    <vehicle id="W_N_154" type="Bike" route="W_N" depart="485.0" departLane="random" departSpeed="10" />
    <vehicle id="N_S_155" type="Bike" route="N_S" depart="488.0" departLane="random" departSpeed="10" />
    <vehicle id="W_E_156" type="Car" route="W_E" depart="490.0" departLane="random" departSpeed="10" />
    <vehicle id="W_S_157" type="Bike" route="E_S" depart="495.0" departLane="random" departSpeed="10" />
    <vehicle id="W_S_158" type="Bike" route="E_S" depart="499.0" departLane="random" departSpeed="10" />
    <vehicle id="S_E_159" type="Bike" route="S_E" depart="500.0" departLane="random" departSpeed="10" />
    <vehicle id="N_E_160" type="Auto" route="N_E" depart="500.0" departLane="random" departSpeed="10" />
    <vehicle id="W_S_161" type="Car" route="E_S" depart="501.0" departLane="random" departSpeed="10" />
    <vehicle id="W_S_162" type="Bike" route="E_S" depart="501.0" departLane="random" departSpeed="10" />
    <vehicle id="N_S_163" type="Auto" route="N_S" depart="502.0" departLane="random" departSpeed="10" />
    <vehicle id="E_N_164" type="Bike" route="E_N" depart="502.0" departLane="random" departSpeed="10" />
    <vehicle id="W_S_165" type="Auto" route="E_S" depart="503.0" departLane="random" departSpeed="10" />
    <vehicle id="N_E_166" type="Bike" route="N_E" depart="505.0" departLane="random" departSpeed="10" />
    <vehicle id="W_E_167" type="Bike" route="W_E" depart="505.0" departLane="random" departSpeed="10" />
    <vehicle id="E_N_168" type="Auto" route="E_N" depart="505.0" departLane="random" departSpeed="10" />
    <vehicle id="E_W_169" type="Bike" route="E_W" depart="506.0" departLane="random" departSpeed="10" />
    <vehicle id="W_E_170" type="Auto" route="W_E" depart="509.0" departLane="random" departSpeed="10" />
    <vehicle id="W_S_171" type="Bike" route="E_S" depart="511.0" departLane="random" departSpeed="10" />
    <vehicle id="W_S_172" type="Auto" route="E_S" depart="516.0" departLane="random" departSpeed="10" />
    <vehicle id="W_S_173" type="Bike" route="E_S" depart="521.0" departLane="random" departSpeed="10" />
    <vehicle id="E_W_174" type="Bike" route="E_W" depart="521.0" departLane="random" departSpeed="10" />
    <vehicle id="N_W_175" type="Bike" route="S_W" depart="523.0" departLane="random" departSpeed="10" />
    <vehicle id="N_S_176" type="Bike" route="N_S" depart="526.0" departLane="random" departSpeed="10" />
    <vehicle id="N_S_177" type="Bike" route="N_S" depart="526.0" departLane="random" departSpeed="10" />
    <vehicle id="S_W_178" type="Bike" route="N_W" depart="527.0" departLane="random" departSpeed="10" />
    <vehicle id="W_S_179" type="Bike" route="E_S" depart="529.0" departLane="random" departSpeed="10" />
    <vehicle id="W_E_180" type="Car" route="W_E" depart="530.0" departLane="random" departSpeed="10" />
    <vehicle id="N_S_181" type="Car" route="N_S" depart="532.0" departLane="random" departSpeed="10" />
    <vehicle id="S_N_182" type="Bike" route="S_N" depart="534.0" departLane="random" departSpeed="10" />
    <vehicle id="W_S_183" type="Bike" route="E_S" depart="534.0" departLane="random" departSpeed="10" />
    <vehicle id="S_N_184" type="Car" route="S_N" depart="536.0" departLane="random" departSpeed="10" />
    <vehicle id="W_N_185" type="Bike" route="W_N" depart="540.0" departLane="random" departSpeed="10" />
    <vehicle id="N_S_186" type="Bike" route="N_S" depart="540.0" departLane="random" departSpeed="10" />
    <vehicle id="S_N_187" type="Auto" route="S_N" depart="540.0" departLane="random" departSpeed="10" />
    <vehicle id="N_E_188" type="Bike" route="N_E" depart="543.0" departLane="random" departSpeed="10" />
    <vehicle id="N_S_189" type="Bike" route="N_S" depart="544.0" departLane="random" departSpeed="10" />
    <vehicle id="W_S_190" type="Auto" route="E_S" depart="544.0" departLane="random" departSpeed="10" />
    <vehicle id="W_S_191" type="Bus" route="E_S" depart="545.0" departLane="random" departSpeed="10" />
    <vehicle id="S_N_192" type="Bike" route="S_N" depart="546.0" departLane="random" departSpeed="10" />
    <vehicle id="W_S_193" type="Bike" route="E_S" depart="551.0" departLane="random" departSpeed="10" />
    <vehicle id="W_N_194" type="Bike" route="W_N" depart="552.0" departLane="random" departSpeed="10" />
    <vehicle id="S_N_195" type="Bike" route="S_N" depart="561.0" departLane="random" departSpeed="10" />
    <vehicle id="W_S_196" type="Auto" route="E_S" depart="562.0" departLane="random" departSpeed="10" />
    <vehicle id="S_N_197" type="Bike" route="S_N" depart="562.0" departLane="random" departSpeed="10" />
    <vehicle id="W_S_198" type="Bike" route="E_S" depart="566.0" departLane="random" departSpeed="10" />
    <vehicle id="N_S_199" type="Bike" route="N_S" depart="567.0" departLane="random" departSpeed="10" />
    <vehicle id="W_N_200" type="Auto" route="W_N" depart="575.0" departLane="random" departSpeed="10" />
    <vehicle id="N_E_201" type="Car" route="N_E" depart="579.0" departLane="random" departSpeed="10" />
    <vehicle id="N_W_202" type="Bike" route="S_W" depart="580.0" departLane="random" departSpeed="10" />
    <vehicle id="W_N_203" type="Bike" route="W_N" depart="581.0" departLane="random" departSpeed="10" />
    <vehicle id="S_N_204" type="Bike" route="S_N" depart="582.0" departLane="random" departSpeed="10" />
    <vehicle id="E_W_205" type="Auto" route="E_W" depart="582.0" departLane="random" departSpeed="10" />
    <vehicle id="W_N_206" type="Bus" route="W_N" depart="583.0" departLane="random" departSpeed="10" />
    <vehicle id="N_S_207" type="Auto" route="N_S" depart="585.0" departLane="random" departSpeed="10" />
    <vehicle id="N_W_208" type="Car" route="S_W" depart="586.0" departLane="random" departSpeed="10" />
    <vehicle id="N_S_209" type="Bike" route="N_S" depart="588.0" departLane="random" departSpeed="10" />
    <vehicle id="N_S_210" type="Bike" route="N_S" depart="589.0" departLane="random" departSpeed="10" />
    <vehicle id="S_E_211" type="Bike" route="S_E" depart="591.0" departLane="random" departSpeed="10" />
    <vehicle id="N_W_212" type="Car" route="S_W" depart="591.0" departLane="random" departSpeed="10" />
    <vehicle id="N_S_213" type="Auto" route="N_S" depart="593.0" departLane="random" departSpeed="10" />
    <vehicle id="N_W_214" type="Bike" route="S_W" depart="593.0" departLane="random" departSpeed="10" />
    <vehicle id="W_N_215" type="Bike" route="W_N" depart="593.0" departLane="random" departSpeed="10" />
    <vehicle id="W_N_216" type="Bike" route="W_N" depart="595.0" departLane="random" departSpeed="10" />
    <vehicle id="E_N_217" type="Auto" route="E_N" depart="598.0" departLane="random" departSpeed="10" />
    <vehicle id="E_W_218" type="Bus" route="E_W" depart="600.0" departLane="random" departSpeed="10" />
    <vehicle id="N_W_219" type="Bike" route="S_W" depart="600.0" departLane="random" departSpeed="10" />
    <vehicle id="W_S_220" type="Car" route="E_S" depart="603.0" departLane="random" departSpeed="10" />
    <vehicle id="W_E_221" type="Car" route="W_E" depart="603.0" departLane="random" departSpeed="10" />
    <vehicle id="W_E_222" type="Car" route="W_E" depart="604.0" departLane="random" departSpeed="10" />
    <vehicle id="W_N_223" type="Bike" route="W_N" depart="605.0" departLane="random" departSpeed="10" />
    <vehicle id="N_S_224" type="Auto" route="N_S" depart="609.0" departLane="random" departSpeed="10" />
    <vehicle id="N_S_225" type="Bike" route="N_S" depart="610.0" departLane="random" departSpeed="10" />
    <vehicle id="S_N_226" type="Bike" route="S_N" depart="610.0" departLane="random" departSpeed="10" />
    <vehicle id="N_W_227" type="Car" route="S_W" depart="611.0" departLane="random" departSpeed="10" />
    <vehicle id="W_S_228" type="Bike" route="E_S" depart="613.0" departLane="random" departSpeed="10" />
    <vehicle id="E_N_229" type="Car" route="E_N" depart="616.0" departLane="random" departSpeed="10" />
    <vehicle id="N_E_230" type="Bus" route="N_E" depart="617.0" departLane="random" departSpeed="10" />
    <vehicle id="W_S_231" type="Bike" route="E_S" depart="617.0" departLane="random" departSpeed="10" />
    <vehicle id="N_S_232" type="Car" route="N_S" depart="618.0" departLane="random" departSpeed="10" />
    <vehicle id="N_S_233" type="Bike" route="N_S" depart="619.0" departLane="random" departSpeed="10" />
    <vehicle id="N_W_234" type="Bike" route="S_W" depart="625.0" departLane="random" departSpeed="10" />
    <vehicle id="E_N_235" type="Car" route="E_N" depart="625.0" departLane="random" departSpeed="10" />
    <vehicle id="W_E_236" type="Car" route="W_E" depart="625.0" departLane="random" departSpeed="10" />
    <vehicle id="N_S_237" type="Car" route="N_S" depart="626.0" departLane="random" departSpeed="10" />
    <vehicle id="N_S_238" type="Bike" route="N_S" depart="629.0" departLane="random" departSpeed="10" />
    <vehicle id="N_W_239" type="Bus" route="S_W" depart="630.0" departLane="random" departSpeed="10" />
    <vehicle id="N_S_240" type="Bike" route="N_S" depart="631.0" departLane="random" departSpeed="10" />
    <vehicle id="E_W_241" type="Bike" route="E_W" depart="631.0" departLane="random" departSpeed="10" />
    <vehicle id="S_W_242" type="Bike" route="N_W" depart="632.0" departLane="random" departSpeed="10" />
    <vehicle id="N_E_243" type="Bike" route="N_E" depart="632.0" departLane="random" departSpeed="10" />
    <vehicle id="N_S_244" type="Bike" route="N_S" depart="635.0" departLane="random" departSpeed="10" />
    <vehicle id="E_W_245" type="Bike" route="E_W" depart="636.0" departLane="random" departSpeed="10" />
    <vehicle id="E_N_246" type="Bus" route="E_N" depart="637.0" departLane="random" departSpeed="10" />
    <vehicle id="W_N_247" type="Bike" route="W_N" depart="638.0" departLane="random" departSpeed="10" />
    <vehicle id="W_N_248" type="Car" route="W_N" depart="638.0" departLane="random" departSpeed="10" />
    <vehicle id="E_S_249" type="Bus" route="W_S" depart="640.0" departLane="random" departSpeed="10" />
    <vehicle id="W_N_250" type="Bike" route="W_N" depart="640.0" departLane="random" departSpeed="10" />
    <vehicle id="S_N_251" type="Bike" route="S_N" depart="641.0" departLane="random" departSpeed="10" />
    <vehicle id="W_S_252" type="Car" route="E_S" depart="642.0" departLane="random" departSpeed="10" />
    <vehicle id="W_N_253" type="Bike" route="W_N" depart="643.0" departLane="random" departSpeed="10" />
    <vehicle id="S_N_254" type="Auto" route="S_N" depart="644.0" departLane="random" departSpeed="10" />
    <vehicle id="N_W_255" type="Bike" route="S_W" depart="647.0" departLane="random" departSpeed="10" />
    <vehicle id="W_E_256" type="Bike" route="W_E" depart="648.0" departLane="random" departSpeed="10" />
    <vehicle id="S_E_257" type="Bike" route="S_E" depart="649.0" departLane="random" departSpeed="10" />
    <vehicle id="N_W_258" type="Bike" route="S_W" depart="649.0" departLane="random" departSpeed="10" />
    <vehicle id="N_W_259" type="Car" route="S_W" depart="649.0" departLane="random" departSpeed="10" />
    <vehicle id="N_W_260" type="Bus" route="S_W" depart="650.0" departLane="random" departSpeed="10" />
    <vehicle id="N_E_261" type="Bike" route="N_E" depart="654.0" departLane="random" departSpeed="10" />
    <vehicle id="W_S_262" type="Bike" route="E_S" depart="657.0" departLane="random" departSpeed="10" />
    <vehicle id="N_S_263" type="Auto" route="N_S" depart="658.0" departLane="random" departSpeed="10" />
    <vehicle id="W_S_264" type="Bike" route="E_S" depart="660.0" departLane="random" departSpeed="10" />
    <vehicle id="N_W_265" type="Bike" route="S_W" depart="662.0" departLane="random" departSpeed="10" />
    <vehicle id="W_E_266" type="Bike" route="W_E" depart="663.0" departLane="random" departSpeed="10" />
    <vehicle id="S_N_267" type="Auto" route="S_N" depart="665.0" departLane="random" departSpeed="10" />
    <vehicle id="W_S_268" type="Auto" route="E_S" depart="666.0" departLane="random" departSpeed="10" />
    <vehicle id="N_E_269" type="Auto" route="N_E" depart="666.0" departLane="random" departSpeed="10" />
    <vehicle id="W_S_270" type="Auto" route="E_S" depart="669.0" departLane="random" departSpeed="10" />
    <vehicle id="N_S_271" type="Car" route="N_S" depart="673.0" departLane="random" departSpeed="10" />
    <vehicle id="S_E_272" type="Car" route="S_E" depart="674.0" departLane="random" departSpeed="10" />
    <vehicle id="N_S_273" type="Car" route="N_S" depart="675.0" departLane="random" departSpeed="10" />
    <vehicle id="W_N_274" type="Bike" route="W_N" depart="676.0" departLane="random" departSpeed="10" />