
            <routes>
                <vType guiShape="passenger/hatchback" accel="1.0" decel="4.0" id="Car" color="white" width="2.5" length="4.0" minGap="1.0" maxSpeed="80.0" sigma="0.2"/>
                <vType guiShape="bus" accel="0.5" decel="5.0" id="Bus" color="blue" width="3.5" length="6.0" minGap="1.0" maxSpeed="40.0" sigma="0.3"/>
                <vType guiShape="motorcycle" accel="1.0" decel="4.0" id="Bike" color="green" width="1.5" length="2.0" minGap="1.0" maxSpeed="60.0" sigma="0.6"/>
                <vType guiShape="evehicle" accel="1.0" decel="4.0" id="Auto" color="yellow" width="2.0" length="3.0" minGap="1.0" maxSpeed="50.0" sigma="0.6"/>
                
                <route id="W_N" edges="W2TL TL2N"/>
                <route id="W_E" edges="W2TL TL2E"/>
                <route id="W_S" edges="W2TL TL2S"/>
                <route id="N_W" edges="N2TL TL2W"/>
                <route id="N_E" edges="N2TL TL2E"/>
                <route id="N_S" edges="N2TL TL2S"/>
                <route id="E_W" edges="E2TL TL2W"/>
                <route id="E_N" edges="E2TL TL2N"/>
                <route id="E_S" edges="E2TL TL2S"/>
                <route id="S_W" edges="S2TL TL2W"/>
                <route id="S_N" edges="S2TL TL2N"/>
                <route id="S_E" edges="S2TL TL2E"/>
    <vehicle id="W_S_0" type="Bike" route="E_S" depart="31.0" departLane="random" departSpeed="10" />
    <vehicle id="S_N_1" type="Bike" route="S_N" depart="34.0" departLane="random" departSpeed="10" />
    <vehicle id="E_S_2" type="Auto" route="W_S" depart="38.0" departLane="random" departSpeed="10" />
    <vehicle id="N_S_3" type="Bike" route="N_S" depart="53.0" departLane="random" departSpeed="10" />
    <vehicle id="S_N_4" type="Car" route="S_N" depart="54.0" departLane="random" departSpeed="10" />
    <vehicle id="S_N_5" type="Car" route="S_N" depart="54.0" departLane="random" departSpeed="10" />
    <vehicle id="S_E_6" type="Bike" route="S_E" depart="55.0" departLane="random" departSpeed="10" />
    <vehicle id="N_W_7" type="Bike" route="S_W" depart="59.0" departLane="random" departSpeed="10" />
    <vehicle id="E_W_8" type="Car" route="E_W" depart="59.0" departLane="random" departSpeed="10" />
    <vehicle id="S_W_9" type="Auto" route="N_W" depart="69.0" departLane="random" departSpeed="10" />
    <vehicle id="N_W_10" type="Bike" route="S_W" depart="69.0" departLane="random" departSpeed="10" />
    <vehicle id="N_S_11" type="Bike" route="N_S" depart="70.0" departLane="random" departSpeed="10" />
    <vehicle id="N_W_12" type="Auto" route="S_W" depart="72.0" departLane="random" departSpeed="10" />
    <vehicle id="S_E_13" type="Car" route="S_E" depart="75.0" departLane="random" departSpeed="10" />
    <vehicle id="W_E_14" type="Bike" route="W_E" depart="77.0" departLane="random" departSpeed="10" />
    <vehicle id="W_S_15" type="Bike" route="E_S" depart="87.0" departLane="random" departSpeed="10" />
    <vehicle id="E_W_16" type="Bike" route="E_W" depart="87.0" departLane="random" departSpeed="10" />
    <vehicle id="W_S_17" type="Bus" route="E_S" depart="88.0" departLane="random" departSpeed="10" />
    <vehicle id="W_E_18" type="Bus" route="W_E" depart="96.0" departLane="random" departSpeed="10" />
    <vehicle id="N_S_19" type="Car" route="N_S" depart="98.0" departLane="random" departSpeed="10" />
    <vehicle id="S_N_20" type="Bike" route="S_N" depart="101.0" departLane="random" departSpeed="10" />
    <vehicle id="W_E_21" type="Bike" route="W_E" depart="105.0" departLane="random" departSpeed="10" />
    <vehicle id="S_W_22" type="Bike" route="N_W" depart="106.0" departLane="random" departSpeed="10" />
    <vehicle id="N_E_23" type="Bike" route="N_E" depart="109.0" departLane="random" departSpeed="10" />
    <vehicle id="N_E_24" type="Car" route="N_E" depart="112.0" departLane="random" departSpeed="10" />
    <vehicle id="W_N_25" type="Bike" route="W_N" depart="114.0" departLane="random" departSpeed="10" />
    <vehicle id="N_E_26" type="Bike" route="N_E" depart="115.0" departLane="random" departSpeed="10" />
    <vehicle id="E_W_27" type="Car" route="E_W" depart="123.0" departLane="random" departSpeed="10" />
    <vehicle id="E_W_28" type="Bike" route="E_W" depart="126.0" departLane="random" departSpeed="10" />
    <vehicle id="S_N_29" type="Car" route="S_N" depart="127.0" departLane="random" departSpeed="10" />
    <vehicle id="N_W_30" type="Auto" route="S_W" depart="140.0" departLane="random" departSpeed="10" />
    <vehicle id="E_W_31" type="Car" route="E_W" depart="140.0" departLane="random" departSpeed="10" />
    <vehicle id="W_S_32" type="Bike" route="E_S" depart="141.0" departLane="random" departSpeed="10" />
    <vehicle id="W_E_33" type="Auto" route="W_E" depart="144.0" departLane="random" departSpeed="10" />
    <vehicle id="S_N_34" type="Car" route="S_N" depart="144.0" departLane="random" departSpeed="10" />
    <vehicle id="W_E_35" type="Bike" route="W_E" depart="147.0" departLane="random" departSpeed="10" />
    <vehicle id="N_S_36" type="Car" route="N_S" depart="151.0" departLane="random" departSpeed="10" />
    <vehicle id="S_N_37" type="Bike" route="S_N" depart="151.0" departLane="random" departSpeed="10" />
    <vehicle id="W_S_38" type="Auto" route="E_S" depart="152.0" departLane="random" departSpeed="10" />
    <vehicle id="S_E_39" type="Bike" route="S_E" depart="157.0" departLane="random" departSpeed="10" />
    <vehicle id="E_W_40" type="Bike" route="E_W" depart="158.0" departLane="random" departSpeed="10" />
    <vehicle id="W_N_41" type="Car" route="W_N" depart="158.0" departLane="random" departSpeed="10" />
    <vehicle id="W_E_42" type="Car" route="W_E" depart="160.0" departLane="random" departSpeed="10" />
    <vehicle id="W_N_43" type="Bike" route="W_N" depart="161.0" departLane="random" departSpeed="10" />
    <vehicle id="E_W_44" type="Car" route="E_W" depart="164.0" departLane="random" departSpeed="10" />
    <vehicle id="S_N_45" type="Bike" route="S_N" depart="164.0" departLane="random" departSpeed="10" />
    <vehicle id="W_N_46" type="Car" route="W_N" depart="165.0" departLane="random" departSpeed="10" />
    <vehicle id="N_S_47" type="Bike" route="N_S" depart="166.0" departLane="random" departSpeed="10" />
    <vehicle id="N_S_48" type="Bus" route="N_S" depart="167.0" departLane="random" departSpeed="10" />
    <vehicle id="N_W_49" type="Bike" route="S_W" depart="169.0" departLane="random" departSpeed="10" />
    <vehicle id="W_N_50" type="Bike" route="W_N" depart="170.0" departLane="random" departSpeed="10" />
    <vehicle id="E_W_51" type="Bike" route="E_W" depart="171.0" departLane="random" departSpeed="10" />
    <vehicle id="N_W_52" type="Bike" route="S_W" depart="177.0" departLane="random" departSpeed="10" />
    <vehicle id="N_W_53" type="Bike" route="S_W" depart="178.0" departLane="random" departSpeed="10" />
    <vehicle id="N_E_54" type="Bike" route="N_E" depart="183.0" departLane="random" departSpeed="10" />
    <vehicle id="E_W_55" type="Car" route="E_W" depart="184.0" departLane="random" departSpeed="10" />
    <vehicle id="W_S_56" type="Bike" route="E_S" depart="186.0" departLane="random" departSpeed="10" />
    <vehicle id="N_E_57" type="Car" route="N_E" depart="187.0" departLane="random" departSpeed="10" />
    <vehicle id="N_S_58" type="Bike" route="N_S" depart="189.0" departLane="random" departSpeed="10" />
    <vehicle id="N_W_59" type="Car" route="S_W" depart="192.0" departLane="random" departSpeed="10" />
    <vehicle id="E_W_60" type="Bike" route="E_W" depart="193.0" departLane="random" departSpeed="10" />
    <vehicle id="N_W_61" type="Bike" route="S_W" depart="193.0" departLane="random" departSpeed="10" />
    <vehicle id="S_N_62" type="Bike" route="S_N" depart="195.0" departLane="random" departSpeed="10" />
    <vehicle id="W_S_63" type="Bike" route="E_S" depart="196.0" departLane="random" departSpeed="10" />
    <vehicle id="E_W_64" type="Bike" route="E_W" depart="197.0" departLane="random" departSpeed="10" />
    <vehicle id="S_N_65" type="Car" route="S_N" depart="199.0" departLane="random" departSpeed="10" />
    <vehicle id="E_W_66" type="Car" route="E_W" depart="204.0" departLane="random" departSpeed="10" />
    <vehicle id="N_W_67" type="Bike" route="S_W" depart="208.0" departLane="random" departSpeed="10" />
    <vehicle id="E_W_68" type="Bike" route="E_W" depart="211.0" departLane="random" departSpeed="10" />
    <vehicle id="N_S_69" type="Auto" route="N_S" depart="212.0" departLane="random" departSpeed="10" />
    <vehicle id="N_E_70" type="Bike" route="N_E" depart="216.0" departLane="random" departSpeed="10" />
    <vehicle id="N_W_71" type="Bike" route="S_W" depart="217.0" departLane="random" departSpeed="10" />
    <vehicle id="E_W_72" type="Bike" route="E_W" depart="219.0" departLane="random" departSpeed="10" />
    <vehicle id="N_E_73" type="Car" route="N_E" depart="219.0" departLane="random" departSpeed="10" />
    <vehicle id="E_N_74" type="Auto" route="E_N" depart="221.0" departLane="random" departSpeed="10" />
    <vehicle id="W_N_75" type="Bike" route="W_N" depart="222.0" departLane="random" departSpeed="10" />
    <vehicle id="W_S_76" type="Car" route="E_S" depart="225.0" departLane="random" departSpeed="10" />
    <vehicle id="W_N_77" type="Bike" route="W_N" depart="230.0" departLane="random" departSpeed="10" />
    <vehicle id="W_S_78" type="Bike" route="E_S" depart="233.0" departLane="random" departSpeed="10" />
    <vehicle id="W_N_79" type="Bike" route="W_N" depart="233.0" departLane="random" departSpeed="10" />
    <vehicle id="N_E_80" type="Bike" route="N_E" depart="233.0" departLane="random" departSpeed="10" />
    <vehicle id="N_W_81" type="Car" route="S_W" depart="234.0" departLane="random" departSpeed="10" />
    <vehicle id="W_E_82" type="Bike" route="W_E" depart="236.0" departLane="random" departSpeed="10" />
    <vehicle id="S_N_83" type="Bike" route="S_N" depart="241.0" departLane="random" departSpeed="10" />
    <vehicle id="W_S_84" type="Bike" route="E_S" depart="244.0" departLane="random" departSpeed="10" />
    <vehicle id="W_N_85" type="Auto" route="W_N" depart="244.0" departLane="random" departSpeed="10" />
    <vehicle id="S_W_86" type="Auto" route="N_W" depart="245.0" departLane="random" departSpeed="10" />
    <vehicle id="W_S_87" type="Bike" route="E_S" depart="246.0" departLane="random" departSpeed="10" />
    <vehicle id="W_E_88" type="Car" route="W_E" depart="246.0" departLane="random" departSpeed="10" />
    <vehicle id="E_W_89" type="Car" route="E_W" depart="248.0" departLane="random" departSpeed="10" />
    <vehicle id="S_W_90" type="Auto" route="N_W" depart="249.0" departLane="random" departSpeed="10" />
    <vehicle id="N_E_91" type="Bike" route="N_E" depart="249.0" departLane="random" departSpeed="10" />
    <vehicle id="W_S_92" type="Bike" route="E_S" depart="251.0" departLane="random" departSpeed="10" />
    <vehicle id="N_S_93" type="Bike" route="N_S" depart="252.0" departLane="random" departSpeed="10" />
    <vehicle id="W_N_94" type="Bike" route="W_N" depart="252.0" departLane="random" departSpeed="10" />
    <vehicle id="N_E_95" type="Bus" route="N_E" depart="253.0" departLane="random" departSpeed="10" />
    <vehicle id="N_W_96" type="Bike" route="S_W" depart="254.0" departLane="random" departSpeed="10" />
    <vehicle id="W_S_97" type="Bike" route="E_S" depart="256.0" departLane="random" departSpeed="10" />
    <vehicle id="S_N_98" type="Bus" route="S_N" depart="256.0" departLane="random" departSpeed="10" />
    <vehicle id="W_N_99" type="Auto" route="W_N" depart="257.0" departLane="random" departSpeed="10" />
    <vehicle id="W_S_100" type="Bike" route="E_S" depart="258.0" departLane="random" departSpeed="10" />
    <vehicle id="W_E_101" type="Bike" route="W_E" depart="265.0" departLane="random" departSpeed="10" />
    <vehicle id="N_E_102" type="Car" route="N_E" depart="266.0" departLane="random" departSpeed="10" />
    <vehicle id="E_N_103" type="Bike" route="E_N" depart="270.0" departLane="random" departSpeed="10" />
    <vehicle id="W_S_104" type="Bike" route="E_S" depart="271.0" departLane="random" departSpeed="10" />
    <vehicle id="S_N_105" type="Bus" route="S_N" depart="273.0" departLane="random" departSpeed="10" />
    <vehicle id="N_E_106" type="Car" route="N_E" depart="275.0" departLane="random" departSpeed="10" />
    <vehicle id="N_W_107" type="Bike" route="S_W" depart="276.0" departLane="random" departSpeed="10" />
    <vehicle id="W_N_108" type="Auto" route="W_N" depart="278.0" departLane="random" departSpeed="10" />
    <vehicle id="N_S_109" type="Car" route="N_S" depart="279.0" departLane="random" departSpeed="10" />
    <vehicle id="W_N_110" type="Car" route="W_N" depart="279.0" departLane="random" departSpeed="10" />
    <vehicle id="W_E_111" type="Car" route="W_E" depart="280.0" departLane="random" departSpeed="10" />
    <vehicle id="W_S_112" type="Bike" route="E_S" depart="280.0" departLane="random" departSpeed="10" />
    <vehicle id="W_E_113" type="Car" route="W_E" depart="281.0" departLane="random" departSpeed="10" />
    <vehicle id="W_S_114" type="Car" route="E_S" depart="283.0" departLane="random" departSpeed="10" />
    <vehicle id="W_S_115" type="Bike" route="E_S" depart="287.0" departLane="random" departSpeed="10" />
    <vehicle id="W_S_116" type="Bike" route="E_S" depart="288.0" departLane="random" departSpeed="10" />
    <vehicle id="W_N_117" type="Bus" route="W_N" depart="289.0" departLane="random" departSpeed="10" />
    <vehicle id="W_N_118" type="Car" route="W_N" depart="292.0" departLane="random" departSpeed="10" />
    <vehicle id="S_W_119" type="Car" route="N_W" depart="294.0" departLane="random" departSpeed="10" />
    <vehicle id="N_S_120" type="Bike" route="N_S" depart="295.0" departLane="random" departSpeed="10" />
    <vehicle id="N_W_121" type="Car" route="S_W" depart="295.0" departLane="random" departSpeed="10" />
    <vehicle id="W_N_122" type="Bike" route="W_N" depart="297.0" departLane="random" departSpeed="10" />
    <vehicle id="N_W_123" type="Bike" route="S_W" depart="298.0" departLane="random" departSpeed="10" />
    <vehicle id="E_S_124" type="Auto" route="W_S" depart="298.0" departLane="random" departSpeed="10" />
    <vehicle id="W_S_125" type="Bus" route="E_S" depart="298.0" departLane="random" departSpeed="10" />
    <vehicle id="E_N_126" type="Auto" route="E_N" depart="305.0" departLane="random" departSpeed="10" />
    <vehicle id="N_E_127" type="Auto" route="N_E" depart="306.0" departLane="random" departSpeed="10" />
    <vehicle id="W_E_128" type="Bike" route="W_E" depart="310.0" departLane="random" departSpeed="10" />
    <vehicle id="W_E_129" type="Car" route="W_E" depart="312.0" departLane="random" departSpeed="10" />
    <vehicle id="N_E_130" type="Bike" route="N_E" depart="315.0" departLane="random" departSpeed="10" />
    <vehicle id="E_S_131" type="Bike" route="W_S" depart="315.0" departLane="random" departSpeed="10" />
    <vehicle id="S_W_132" type="Auto" route="N_W" depart="316.0" departLane="random" departSpeed="10" />
    <vehicle id="W_S_133" type="Bus" route="E_S" depart="318.0" departLane="random" departSpeed="10" />
    <vehicle id="N_S_134" type="Bike" route="N_S" depart="320.0" departLane="random" departSpeed="10" />
    <vehicle id="N_E_135" type="Bike" route="N_E" depart="323.0" departLane="random" departSpeed="10" />
    <vehicle id="N_W_136" type="Car" route="S_W" depart="326.0" departLane="random" departSpeed="10" />
    <vehicle id="E_W_137" type="Bike" route="E_W" depart="328.0" departLane="random" departSpeed="10" />
    <vehicle id="N_W_138" type="Bike" route="S_W" depart="328.0" departLane="random" departSpeed="10" />
    <vehicle id="W_E_139" type="Bike" route="W_E" depart="328.0" departLane="random" departSpeed="10" />
    <vehicle id="E_N_140" type="Bike" route="E_N" depart="329.0" departLane="random" departSpeed="10" />
    <vehicle id="S_E_141" type="Bus" route="S_E" depart="332.0" departLane="random" departSpeed="10" />
    <vehicle id="W_S_142" type="Auto" route="E_S" depart="337.0" departLane="random" departSpeed="10" />
    <vehicle id="W_E_143" type="Bike" route="W_E" depart="338.0" departLane="random" departSpeed="10" />
    <vehicle id="W_E_144" type="Bike" route="W_E" depart="339.0" departLane="random" departSpeed="10" />
    <vehicle id="W_N_145" type="Car" route="W_N" depart="343.0" departLane="random" departSpeed="10" />
    <vehicle id="N_E_146" type="Car" route="N_E" depart="345.0" departLane="random" departSpeed="10" />
    <vehicle id="W_E_147" type="Car" route="W_E" depart="347.0" departLane="random" departSpeed="10" />
    <vehicle id="S_N_148" type="Auto" route="S_N" depart="347.0" departLane="random" departSpeed="10" />
    <vehicle id="W_N_149" type="Bike" route="W_N" depart="347.0" departLane="random" departSpeed="10" />
    <vehicle id="W_N_150" type="Bike" route="W_N" depart="350.0" departLane="random" departSpeed="10" />
    <vehicle id="W_S_151" type="Bike" route="E_S" depart="366.0" departLane="random" departSpeed="10" />
    <vehicle id="N_S_152" type="Bike" route="N_S" depart="366.0" departLane="random" departSpeed="10" />
    <vehicle id="N_S_153" type="Auto" route="N_S" depart="367.0" departLane="random" departSpeed="10" />
    <vehicle id="N_S_154" type="Auto" route="N_S" depart="368.0" departLane="random" departSpeed="10" />
    <vehicle id="W_S_155" type="Bike" route="E_S" depart="370.0" departLane="random" departSpeed="10" />
    <vehicle id="W_N_156" type="Bike" route="W_N" depart="374.0" departLane="random" departSpeed="10" />
    <vehicle id="W_S_157" type="Bike" route="E_S" depart="385.0" departLane="random" departSpeed="10" />
    <vehicle id="E_W_158" type="Bike" route="E_W" depart="386.0" departLane="random" departSpeed="10" />
    <vehicle id="S_N_159" type="Bike" route="S_N" depart="388.0" departLane="random" departSpeed="10" />
    <vehicle id="W_N_160" type="Car" route="W_N" depart="392.0" departLane="random" departSpeed="10" />
    <vehicle id="E_N_161" type="Car" route="E_N" depart="392.0" departLane="random" departSpeed="10" />
    <vehicle id="W_E_162" type="Car" route="W_E" depart="401.0" departLane="random" departSpeed="10" />
    <vehicle id="S_E_163" type="Bike" route="S_E" depart="408.0" departLane="random" departSpeed="10" />
    <vehicle id="S_W_164" type="Auto" route="N_W" depart="408.0" departLane="random" departSpeed="10" />
    <vehicle id="S_N_165" type="Auto" route="S_N" depart="409.0" departLane="random" departSpeed="10" />
    <vehicle id="E_N_166" type="Bus" route="E_N" depart="409.0" departLane="random" departSpeed="10" />
    <vehicle id="N_E_167" type="Car" route="N_E" depart="413.0" departLane="random" departSpeed="10" />
    <vehicle id="N_W_168" type="Bike" route="S_W" depart="419.0" departLane="random" departSpeed="10" />
    <vehicle id="W_N_169" type="Car" route="W_N" depart="421.0" departLane="random" departSpeed="10" />
    <vehicle id="N_W_170" type="Car" route="S_W" depart="422.0" departLane="random" departSpeed="10" />
    <vehicle id="S_W_171" type="Bike" route="N_W" depart="422.0" departLane="random" departSpeed="10" />
    <vehicle id="N_S_172" type="Car" route="N_S" depart="423.0" departLane="random" departSpeed="10" />
    <vehicle id="S_N_173" type="Bike" route="S_N" depart="441.0" departLane="random" departSpeed="10" />
    <vehicle id="S_E_174" type="Auto" route="S_E" depart="445.0" departLane="random" departSpeed="10" />
    <vehicle id="E_W_175" type="Bike" route="E_W" depart="455.0" departLane="random" departSpeed="10" />
    <vehicle id="N_E_176" type="Auto" route="N_E" depart="456.0" departLane="random" departSpeed="10" />
    <vehicle id="N_E_177" type="Bike" route="N_E" depart="458.0" departLane="random" departSpeed="10" />
    <vehicle id="N_S_178" type="Bike" route="N_S" depart="460.0" departLane="random" departSpeed="10" />
    <vehicle id="W_E_179" type="Bike" route="W_E" depart="462.0" departLane="random" departSpeed="10" />
    <vehicle id="E_W_180" type="Auto" route="E_W" depart="466.0" departLane="random" departSpeed="10" />
    <vehicle id="W_E_181" type="Car" route="W_E" depart="475.0" departLane="random" departSpeed="10" />
    <vehicle id="N_W_182" type="Auto" route="S_W" depart="476.0" departLane="random" departSpeed="10" />
    <vehicle id="N_S_183" type="Bike" route="N_S" depart="482.0" departLane="random" departSpeed="10" />
    <vehicle id="N_S_184" type="Bike" route="N_S" depart="487.0" departLane="random" departSpeed="10" />
    <vehicle id="W_N_185" type="Auto" route="W_N" depart="495.0" departLane="random" departSpeed="10" />
    <vehicle id="E_N_186" type="Bike" route="E_N" depart="522.0" departLane="random" departSpeed="10" />
    <vehicle id="W_E_187" type="Car" route="W_E" depart="526.0" departLane="random" departSpeed="10" />
    <vehicle id="W_N_188" type="Bike" route="W_N" depart="528.0" departLane="random" departSpeed="10" />
    <vehicle id="N_W_189" type="Bike" route="S_W" depart="538.0" departLane="random" departSpeed="10" />
    <vehicle id="N_S_190" type="Bike" route="N_S" depart="560.0" departLane="random" departSpeed="10" />
    <vehicle id="W_E_191" type="Bike" route="W_E" depart="584.0" departLane="random" departSpeed="10" />
    <vehicle id="S_N_192" type="Bus" route="S_N" depart="584.0" departLane="random" departSpeed="10" />
    <vehicle id="W_S_193" type="Bus" route="E_S" depart="591.0" departLane="random" departSpeed="10" />
    <vehicle id="N_W_194" type="Bike" route="S_W" depart="609.0" departLane="random" departSpeed="10" />
    <vehicle id="N_E_195" type="Bike" route="N_E" depart="626.0" departLane="random" departSpeed="10" />
    <vehicle id="W_S_196" type="Bike" route="E_S" depart="633.0" departLane="random" departSpeed="10" />
    <vehicle id="N_S_197" type="Bike" route="N_S" depart="674.0" departLane="random" departSpeed="10" />
    <vehicle id="N_W_198" type="Bike" route="S_W" depart="704.0" departLane="random" departSpeed="10" />
    <vehicle id="N_E_199" type="Bike" route="N_E" depart="752.0" departLane="random" departSpeed="10" />
</routes>
