
            <routes>
                <vType guiShape="passenger/hatchback" accel="1.0" decel="4.0" id="Car" color="white" width="2.5" length="4.0" minGap="1.0" maxSpeed="80.0" sigma="0.2"/>
                <vType guiShape="bus" accel="0.5" decel="5.0" id="Bus" color="blue" width="3.5" length="6.0" minGap="1.0" maxSpeed="40.0" sigma="0.3"/>
                <vType guiShape="motorcycle" accel="1.0" decel="4.0" id="Bike" color="green" width="1.5" length="2.0" minGap="1.0" maxSpeed="60.0" sigma="0.6"/>
                <vType guiShape="evehicle" accel="1.0" decel="4.0" id="Auto" color="yellow" width="2.0" length="3.0" minGap="1.0" maxSpeed="50.0" sigma="0.6"/>
                
                <route id="W_N" edges="W2TL TL2N"/>
                <route id="W_E" edges="W2TL TL2E"/>
                <route id="W_S" edges="W2TL TL2S"/>
                <route id="N_W" edges="N2TL TL2W"/>
                <route id="N_E" edges="N2TL TL2E"/>
                <route id="N_S" edges="N2TL TL2S"/>
                <route id="E_W" edges="E2TL TL2W"/>
                <route id="E_N" edges="E2TL TL2N"/>
                <route id="E_S" edges="E2TL TL2S"/>
                <route id="S_W" edges="S2TL TL2W"/>
                <route id="S_N" edges="S2TL TL2N"/>
                <route id="S_E" edges="S2TL TL2E"/>
    <vehicle id="E_S_0" type="Car" route="W_S" depart="49.0" departLane="random" departSpeed="10" />
    <vehicle id="N_S_1" type="Bike" route="N_S" depart="57.0" departLane="random" departSpeed="10" />
    <vehicle id="N_E_2" type="Car" route="N_E" depart="60.0" departLane="random" departSpeed="10" />
    <vehicle id="N_E_3" type="Bike" route="N_E" depart="76.0" departLane="random" departSpeed="10" />
    <vehicle id="W_N_4" type="Bike" route="W_N" depart="82.0" departLane="random" departSpeed="10" />
    <vehicle id="E_S_5" type="Car" route="W_S" depart="90.0" departLane="random" departSpeed="10" />
    <vehicle id="W_N_6" type="Bike" route="W_N" depart="90.0" departLane="random" departSpeed="10" />
    <vehicle id="W_S_7" type="Car" route="E_S" depart="108.0" departLane="random" departSpeed="10" />
    <vehicle id="N_S_8" type="Bike" route="N_S" depart="114.0" departLane="random" departSpeed="10" />
    <vehicle id="N_E_9" type="Bike" route="N_E" depart="114.0" departLane="random" departSpeed="10" />
    <vehicle id="N_S_10" type="Bike" route="N_S" depart="116.0" departLane="random" departSpeed="10" />
    <vehicle id="W_N_11" type="Bike" route="W_N" depart="122.0" departLane="random" departSpeed="10" />
    <vehicle id="E_W_12" type="Bike" route="E_W" depart="123.0" departLane="random" departSpeed="10" />
    <vehicle id="S_N_13" type="Bike" route="S_N" depart="123.0" departLane="random" departSpeed="10" />
    <vehicle id="N_S_14" type="Bike" route="N_S" depart="133.0" departLane="random" departSpeed="10" />
    <vehicle id="N_E_15" type="Bike" route="N_E" depart="136.0" departLane="random" departSpeed="10" />
    <vehicle id="N_E_16" type="Car" route="N_E" depart="136.0" departLane="random" departSpeed="10" />
    <vehicle id="E_W_17" type="Auto" route="E_W" depart="142.0" departLane="random" departSpeed="10" />
    <vehicle id="W_N_18" type="Bike" route="W_N" depart="148.0" departLane="random" departSpeed="10" />
    <vehicle id="W_N_19" type="Car" route="W_N" depart="156.0" departLane="random" departSpeed="10" />
    <vehicle id="E_W_20" type="Auto" route="E_W" depart="156.0" departLane="random" departSpeed="10" />
    <vehicle id="N_S_21" type="Auto" route="N_S" depart="157.0" departLane="random" departSpeed="10" />
    <vehicle id="W_S_22" type="Bus" route="E_S" depart="161.0" departLane="random" departSpeed="10" />
    <vehicle id="S_N_23" type="Bike" route="S_N" depart="161.0" departLane="random" departSpeed="10" />
    <vehicle id="W_N_24" type="Bike" route="W_N" depart="163.0" departLane="random" departSpeed="10" />
    <vehicle id="N_E_25" type="Car" route="N_E" depart="177.0" departLane="random" departSpeed="10" />
    <vehicle id="E_W_26" type="Bike" route="E_W" depart="184.0" departLane="random" departSpeed="10" />
    <vehicle id="N_W_27" type="Bike" route="S_W" depart="184.0" departLane="random" departSpeed="10" />
    <vehicle id="W_N_28" type="Bus" route="W_N" depart="188.0" departLane="random" departSpeed="10" />
    <vehicle id="N_E_29" type="Car" route="N_E" depart="193.0" departLane="random" departSpeed="10" />
    <vehicle id="N_S_30" type="Car" route="N_S" depart="195.0" departLane="random" departSpeed="10" />
    <vehicle id="W_S_31" type="Bike" route="E_S" depart="197.0" departLane="random" departSpeed="10" />
    <vehicle id="E_N_32" type="Bus" route="E_N" depart="202.0" departLane="random" departSpeed="10" />
    <vehicle id="N_S_33" type="Car" route="N_S" depart="216.0" departLane="random" departSpeed="10" />
    <vehicle id="N_S_34" type="Bike" route="N_S" depart="218.0" departLane="random" departSpeed="10" />
    <vehicle id="W_N_35" type="Bike" route="W_N" depart="221.0" departLane="random" departSpeed="10" />
    <vehicle id="N_E_36" type="Auto" route="N_E" depart="228.0" departLane="random" departSpeed="10" />
    <vehicle id="W_S_37" type="Bike" route="E_S" depart="229.0" departLane="random" departSpeed="10" />
    <vehicle id="W_S_38" type="Bike" route="E_S" depart="230.0" departLane="random" departSpeed="10" />
    <vehicle id="W_S_39" type="Bike" route="E_S" depart="230.0" departLane="random" departSpeed="10" />
    <vehicle id="N_S_40" type="Bike" route="N_S" depart="231.0" departLane="random" departSpeed="10" />
    <vehicle id="W_E_41" type="Bike" route="W_E" depart="239.0" departLane="random" departSpeed="10" />
    <vehicle id="W_N_42" type="Bike" route="W_N" depart="245.0" departLane="random" departSpeed="10" />
    <vehicle id="W_N_43" type="Car" route="W_N" depart="246.0" departLane="random" departSpeed="10" />
    <vehicle id="W_N_44" type="Bus" route="W_N" depart="250.0" departLane="random" departSpeed="10" />
    <vehicle id="S_E_45" type="Car" route="S_E" depart="254.0" departLane="random" departSpeed="10" />
    <vehicle id="N_W_46" type="Bike" route="S_W" depart="257.0" departLane="random" departSpeed="10" />
    <vehicle id="W_S_47" type="Car" route="E_S" depart="258.0" departLane="random" departSpeed="10" />
    <vehicle id="W_S_48" type="Car" route="E_S" depart="258.0" departLane="random" departSpeed="10" />
    <vehicle id="N_S_49" type="Car" route="N_S" depart="260.0" departLane="random" departSpeed="10" />
    <vehicle id="E_W_50" type="Bike" route="E_W" depart="260.0" departLane="random" departSpeed="10" />
    <vehicle id="W_N_51" type="Bike" route="W_N" depart="261.0" departLane="random" departSpeed="10" />
    <vehicle id="N_W_52" type="Bike" route="S_W" depart="265.0" departLane="random" departSpeed="10" />
    <vehicle id="W_E_53" type="Bike" route="W_E" depart="267.0" departLane="random" departSpeed="10" />
    <vehicle id="W_S_54" type="Car" route="E_S" depart="270.0" departLane="random" departSpeed="10" />
    <vehicle id="E_W_55" type="Car" route="E_W" depart="270.0" departLane="random" departSpeed="10" />
    <vehicle id="S_N_56" type="Bike" route="S_N" depart="273.0" departLane="random" departSpeed="10" />
    <vehicle id="S_N_57" type="Car" route="S_N" depart="276.0" departLane="random" departSpeed="10" />
    <vehicle id="W_E_58" type="Bike" route="W_E" depart="280.0" departLane="random" departSpeed="10" />
    <vehicle id="N_S_59" type="Car" route="N_S" depart="282.0" departLane="random" departSpeed="10" />
    <vehicle id="W_S_60" type="Car" route="E_S" depart="289.0" departLane="random" departSpeed="10" />
    <vehicle id="W_S_61" type="Bike" route="E_S" depart="292.0" departLane="random" departSpeed="10" />
    <vehicle id="N_E_62" type="Bike" route="N_E" depart="295.0" departLane="random" departSpeed="10" />
    <vehicle id="W_N_63" type="Car" route="W_N" depart="309.0" departLane="random" departSpeed="10" />
    <vehicle id="N_E_64" type="Car" route="N_E" depart="321.0" departLane="random" departSpeed="10" />
    <vehicle id="W_S_65" type="Bike" route="E_S" depart="325.0" departLane="random" departSpeed="10" />
    <vehicle id="W_S_66" type="Car" route="E_S" depart="328.0" departLane="random" departSpeed="10" />
    <vehicle id="N_W_67" type="Bike" route="S_W" depart="328.0" departLane="random" departSpeed="10" />
    <vehicle id="W_S_68" type="Bike" route="E_S" depart="330.0" departLane="random" departSpeed="10" />
    <vehicle id="W_N_69" type="Bike" route="W_N" depart="332.0" departLane="random" departSpeed="10" />
    <vehicle id="S_E_70" type="Bike" route="S_E" depart="335.0" departLane="random" departSpeed="10" />
    <vehicle id="N_S_71" type="Auto" route="N_S" depart="335.0" departLane="random" departSpeed="10" />
    <vehicle id="N_E_72" type="Car" route="N_E" depart="335.0" departLane="random" departSpeed="10" />
    <vehicle id="W_E_73" type="Car" route="W_E" depart="337.0" departLane="random" departSpeed="10" />
    <vehicle id="E_N_74" type="Car" route="E_N" depart="340.0" departLane="random" departSpeed="10" />
    <vehicle id="E_W_75" type="Auto" route="E_W" depart="340.0" departLane="random" departSpeed="10" />
    <vehicle id="S_N_76" type="Car" route="S_N" depart="340.0" departLane="random" departSpeed="10" />
    <vehicle id="S_N_77" type="Car" route="S_N" depart="340.0" departLane="random" departSpeed="10" />
    <vehicle id="E_W_78" type="Car" route="E_W" depart="341.0" departLane="random" departSpeed="10" />
    <vehicle id="N_W_79" type="Bike" route="S_W" depart="343.0" departLane="random" departSpeed="10" />
    <vehicle id="E_W_80" type="Car" route="E_W" depart="346.0" departLane="random" departSpeed="10" />
    <vehicle id="W_S_81" type="Car" route="E_S" depart="347.0" departLane="random" departSpeed="10" />
    <vehicle id="E_W_82" type="Auto" route="E_W" depart="351.0" departLane="random" departSpeed="10" />
    <vehicle id="W_E_83" type="Bike" route="W_E" depart="352.0" departLane="random" departSpeed="10" />
    <vehicle id="W_N_84" type="Car" route="W_N" depart="355.0" departLane="random" departSpeed="10" />
    <vehicle id="S_N_85" type="Bike" route="S_N" depart="357.0" departLane="random" departSpeed="10" />
    <vehicle id="W_N_86" type="Bike" route="W_N" depart="358.0" departLane="random" departSpeed="10" />
    <vehicle id="W_S_87" type="Car" route="E_S" depart="360.0" departLane="random" departSpeed="10" />
    <vehicle id="E_W_88" type="Car" route="E_W" depart="370.0" departLane="random" departSpeed="10" />
    <vehicle id="E_W_89" type="Car" route="E_W" depart="371.0" departLane="random" departSpeed="10" />
    <vehicle id="W_E_90" type="Bus" route="W_E" depart="374.0" departLane="random" departSpeed="10" />
    <vehicle id="W_S_91" type="Bike" route="E_S" depart="375.0" departLane="random" departSpeed="10" />
    <vehicle id="N_E_92" type="Bike" route="N_E" depart="379.0" departLane="random" departSpeed="10" />
    <vehicle id="S_N_93" type="Car" route="S_N" depart="379.0" departLane="random" departSpeed="10" />
    <vehicle id="W_S_94" type="Auto" route="E_S" depart="382.0" departLane="random" departSpeed="10" />
    <vehicle id="N_S_95" type="Car" route="N_S" depart="386.0" departLane="random" departSpeed="10" />
    <vehicle id="N_S_96" type="Bike" route="N_S" depart="388.0" departLane="random" departSpeed="10" />
    <vehicle id="N_W_97" type="Car" route="S_W" depart="390.0" departLane="random" departSpeed="10" />
    <vehicle id="E_W_98" type="Auto" route="E_W" depart="393.0" departLane="random" departSpeed="10" />
    <vehicle id="W_N_99" type="Bike" route="W_N" depart="398.0" departLane="random" departSpeed="10" />
    <vehicle id="W_S_100" type="Car" route="E_S" depart="398.0" departLane="random" departSpeed="10" />
    <vehicle id="N_S_101" type="Bike" route="N_S" depart="400.0" departLane="random" departSpeed="10" />
    <vehicle id="N_W_102" type="Bike" route="S_W" depart="404.0" departLane="random" departSpeed="10" />
    <vehicle id="W_N_103" type="Car" route="W_N" depart="405.0" departLane="random" departSpeed="10" />
    <vehicle id="S_W_104" type="Bike" route="N_W" depart="405.0" departLane="random" departSpeed="10" />
    <vehicle id="E_W_105" type="Car" route="E_W" depart="406.0" departLane="random" departSpeed="10" />
    <vehicle id="S_W_106" type="Car" route="N_W" depart="408.0" departLane="random" departSpeed="10" />
    <vehicle id="N_W_107" type="Bike" route="S_W" depart="409.0" departLane="random" departSpeed="10" />
    <vehicle id="E_S_108" type="Bike" route="W_S" depart="410.0" departLane="random" departSpeed="10" />
    <vehicle id="E_W_109" type="Bike" route="E_W" depart="411.0" departLane="random" departSpeed="10" />
    <vehicle id="S_W_110" type="Bike" route="N_W" depart="414.0" departLane="random" departSpeed="10" />
    <vehicle id="W_S_111" type="Car" route="E_S" depart="414.0" departLane="random" departSpeed="10" />
    <vehicle id="W_S_112" type="Car" route="E_S" depart="415.0" departLane="random" departSpeed="10" />
    <vehicle id="W_N_113" type="Bike" route="W_N" depart="416.0" departLane="random" departSpeed="10" />
    <vehicle id="W_E_114" type="Auto" route="W_E" depart="418.0" departLane="random" departSpeed="10" />
    <vehicle id="S_N_115" type="Bike" route="S_N" depart="420.0" departLane="random" departSpeed="10" />
    <vehicle id="E_W_116" type="Bike" route="E_W" depart="424.0" departLane="random" departSpeed="10" />
    <vehicle id="N_W_117" type="Car" route="S_W" depart="430.0" departLane="random" departSpeed="10" />
    <vehicle id="W_N_118" type="Car" route="W_N" depart="430.0" departLane="random" departSpeed="10" />
    <vehicle id="S_N_119" type="Bike" route="S_N" depart="435.0" departLane="random" departSpeed="10" />
    <vehicle id="S_N_120" type="Bike" route="S_N" depart="442.0" departLane="random" departSpeed="10" />
    <vehicle id="N_E_121" type="Bike" route="N_E" depart="443.0" departLane="random" departSpeed="10" />
    <vehicle id="W_N_122" type="Bike" route="W_N" depart="448.0" departLane="random" departSpeed="10" />
    <vehicle id="W_N_123" type="Auto" route="W_N" depart="449.0" departLane="random" departSpeed="10" />
    <vehicle id="E_S_124" type="Bike" route="W_S" depart="450.0" departLane="random" departSpeed="10" />
    <vehicle id="E_W_125" type="Auto" route="E_W" depart="452.0" departLane="random" departSpeed="10" />
    <vehicle id="W_E_126" type="Auto" route="W_E" depart="456.0" departLane="random" departSpeed="10" />
    <vehicle id="W_S_127" type="Bike" route="E_S" depart="458.0" departLane="random" departSpeed="10" />
    <vehicle id="E_S_128" type="Bike" route="W_S" depart="465.0" departLane="random" departSpeed="10" />
    <vehicle id="N_S_129" type="Bus" route="N_S" depart="468.0" departLane="random" departSpeed="10" />
    <vehicle id="E_W_130" type="Car" route="E_W" depart="471.0" departLane="random" departSpeed="10" />
    <vehicle id="N_W_131" type="Auto" route="S_W" depart="474.0" departLane="random" departSpeed="10" />
    <vehicle id="S_E_132" type="Bike" route="S_E" depart="475.0" departLane="random" departSpeed="10" />
    <vehicle id="N_E_133" type="Bike" route="N_E" depart="475.0" departLane="random" departSpeed="10" />
    <vehicle id="N_W_134" type="Bike" route="S_W" depart="477.0" departLane="random" departSpeed="10" />
    <vehicle id="W_S_135" type="Auto" route="E_S" depart="483.0" departLane="random" departSpeed="10" />
    <vehicle id="N_E_136" type="Auto" route="N_E" depart="484.0" departLane="random" departSpeed="10" />
    <vehicle id="W_E_137" type="Bike" route="W_E" depart="485.0" departLane="random" departSpeed="10" />
    <vehicle id="N_W_138" type="Car" route="S_W" depart="488.0" departLane="random" departSpeed="10" />
    <vehicle id="N_E_139" type="Bike" route="N_E" depart="489.0" departLane="random" departSpeed="10" />
    <vehicle id="W_S_140" type="Bike" route="E_S" depart="492.0" departLane="random" departSpeed="10" />
    <vehicle id="W_S_141" type="Bike" route="E_S" depart="492.0" departLane="random" departSpeed="10" />
    <vehicle id="S_N_142" type="Car" route="S_N" depart="493.0" departLane="random" departSpeed="10" />
    <vehicle id="N_E_143" type="Bike" route="N_E" depart="495.0" departLane="random" departSpeed="10" />
    <vehicle id="W_N_144" type="Bike" route="W_N" depart="496.0" departLane="random" departSpeed="10" />
    <vehicle id="N_E_145" type="Bike" route="N_E" depart="498.0" departLane="random" departSpeed="10" />
    <vehicle id="N_W_146" type="Car" route="S_W" depart="498.0" departLane="random" departSpeed="10" />
    <vehicle id="S_W_147" type="Bike" route="N_W" depart="499.0" departLane="random" departSpeed="10" />
    <vehicle id="N_S_148" type="Auto" route="N_S" depart="500.0" departLane="random" departSpeed="10" />
    <vehicle id="N_S_149" type="Bike" route="N_S" depart="507.0" departLane="random" departSpeed="10" />
    <vehicle id="E_W_150" type="Auto" route="E_W" depart="507.0" departLane="random" departSpeed="10" />
    <vehicle id="W_N_151" type="Car" route="W_N" depart="509.0" departLane="random" departSpeed="10" />
    <vehicle id="E_S_152" type="Bike" route="W_S" depart="514.0" departLane="random" departSpeed="10" />
    <vehicle id="S_N_153" type="Car" route="S_N" depart="515.0" departLane="random" departSpeed="10" />
    <vehicle id="E_N_154" type="Car" route="E_N" depart="516.0" departLane="random" departSpeed="10" />
    <vehicle id="E_S_155" type="Bike" route="W_S" depart="516.0" departLane="random" departSpeed="10" />
    <vehicle id="W_E_156" type="Bike" route="W_E" depart="516.0" departLane="random" departSpeed="10" />
    <vehicle id="S_E_157" type="Car" route="S_E" depart="517.0" departLane="random" departSpeed="10" />
    <vehicle id="W_E_158" type="Bike" route="W_E" depart="521.0" departLane="random" departSpeed="10" />
    <vehicle id="E_S_159" type="Bike" route="W_S" depart="525.0" departLane="random" departSpeed="10" />
    <vehicle id="N_W_160" type="Bike" route="S_W" depart="525.0" departLane="random" departSpeed="10" />
    <vehicle id="E_S_161" type="Car" route="W_S" depart="525.0" departLane="random" departSpeed="10" />
    <vehicle id="N_W_162" type="Bike" route="S_W" depart="526.0" departLane="random" departSpeed="10" />
    <vehicle id="N_W_163" type="Auto" route="S_W" depart="527.0" departLane="random" departSpeed="10" />
    <vehicle id="E_S_164" type="Car" route="W_S" depart="531.0" departLane="random" departSpeed="10" />
    <vehicle id="N_E_165" type="Bike" route="N_E" depart="534.0" departLane="random" departSpeed="10" />
    <vehicle id="N_W_166" type="Car" route="S_W" depart="535.0" departLane="random" departSpeed="10" />
    <vehicle id="W_S_167" type="Car" route="E_S" depart="536.0" departLane="random" departSpeed="10" />
    <vehicle id="N_E_168" type="Bike" route="N_E" depart="540.0" departLane="random" departSpeed="10" />
    <vehicle id="N_S_169" type="Auto" route="N_S" depart="543.0" departLane="random" departSpeed="10" />
    <vehicle id="E_S_170" type="Bus" route="W_S" depart="543.0" departLane="random" departSpeed="10" />
    <vehicle id="W_N_171" type="Bike" route="W_N" depart="544.0" departLane="random" departSpeed="10" />
    <vehicle id="N_W_172" type="Auto" route="S_W" depart="546.0" departLane="random" departSpeed="10" />
    <vehicle id="W_N_173" type="Car" route="W_N" depart="550.0" departLane="random" departSpeed="10" />
    <vehicle id="W_E_174" type="Car" route="W_E" depart="550.0" departLane="random" departSpeed="10" />
    <vehicle id="N_W_175" type="Bike" route="S_W" depart="554.0" departLane="random" departSpeed="10" />
    <vehicle id="N_S_176" type="Car" route="N_S" depart="554.0" departLane="random" departSpeed="10" />
    <vehicle id="N_W_177" type="Bike" route="S_W" depart="555.0" departLane="random" departSpeed="10" />
    <vehicle id="N_W_178" type="Auto" route="S_W" depart="555.0" departLane="random" departSpeed="10" />
    <vehicle id="N_E_179" type="Auto" route="N_E" depart="555.0" departLane="random" departSpeed="10" />
    <vehicle id="N_S_180" type="Bike" route="N_S" depart="556.0" departLane="random" departSpeed="10" />
    <vehicle id="N_E_181" type="Car" route="N_E" depart="556.0" departLane="random" departSpeed="10" />
    <vehicle id="N_W_182" type="Bike" route="S_W" depart="557.0" departLane="random" departSpeed="10" />
    <vehicle id="W_S_183" type="Bike" route="E_S" depart="557.0" departLane="random" departSpeed="10" />
    <vehicle id="N_E_184" type="Car" route="N_E" depart="557.0" departLane="random" departSpeed="10" />
    <vehicle id="E_W_185" type="Bike" route="E_W" depart="561.0" departLane="random" departSpeed="10" />
    <vehicle id="E_N_186" type="Car" route="E_N" depart="562.0" departLane="random" departSpeed="10" />
    <vehicle id="N_W_187" type="Bus" route="S_W" depart="563.0" departLane="random" departSpeed="10" />
    <vehicle id="W_S_188" type="Bike" route="E_S" depart="564.0" departLane="random" departSpeed="10" />
    <vehicle id="W_N_189" type="Bike" route="W_N" depart="565.0" departLane="random" departSpeed="10" />
    <vehicle id="N_W_190" type="Auto" route="S_W" depart="566.0" departLane="random" departSpeed="10" />
    <vehicle id="E_N_191" type="Bus" route="E_N" depart="566.0" departLane="random" departSpeed="10" />
    <vehicle id="W_N_192" type="Bike" route="W_N" depart="569.0" departLane="random" departSpeed="10" />
    <vehicle id="W_E_193" type="Bike" route="W_E" depart="570.0" departLane="random" departSpeed="10" />
    <vehicle id="W_E_194" type="Auto" route="W_E" depart="581.0" departLane="random" departSpeed="10" />
    <vehicle id="S_W_195" type="Bike" route="N_W" depart="586.0" departLane="random" departSpeed="10" />
    <vehicle id="W_E_196" type="Car" route="W_E" depart="587.0" departLane="random" departSpeed="10" />
    <vehicle id="N_E_197" type="Auto" route="N_E" depart="587.0" departLane="random" departSpeed="10" />
    <vehicle id="N_W_198" type="Car" route="S_W" depart="590.0" departLane="random" departSpeed="10" />
    <vehicle id="W_E_199" type="Bike" route="W_E" depart="591.0" departLane="random" departSpeed="10" />
    <vehicle id="N_E_200" type="Car" route="N_E" depart="592.0" departLane="random" departSpeed="10" />
    <vehicle id="S_N_201" type="Auto" route="S_N" depart="592.0" departLane="random" departSpeed="10" />
    <vehicle id="S_E_202" type="Bike" route="S_E" depart="593.0" departLane="random" departSpeed="10" />
    <vehicle id="W_S_203" type="Car" route="E_S" depart="594.0" departLane="random" departSpeed="10" />
    <vehicle id="E_S_204" type="Car" route="W_S" depart="599.0" departLane="random" departSpeed="10" />
    <vehicle id="E_N_205" type="Bus" route="E_N" depart="599.0" departLane="random" departSpeed="10" />
    <vehicle id="N_E_206" type="Car" route="N_E" depart="602.0" departLane="random" departSpeed="10" />
    <vehicle id="N_W_207" type="Bike" route="S_W" depart="605.0" departLane="random" departSpeed="10" />
    <vehicle id="N_S_208" type="Bike" route="N_S" depart="611.0" departLane="random" departSpeed="10" />
    <vehicle id="N_W_209" type="Car" route="S_W" depart="612.0" departLane="random" departSpeed="10" />
    <vehicle id="E_W_210" type="Bike" route="E_W" depart="613.0" departLane="random" departSpeed="10" />
    <vehicle id="N_W_211" type="Auto" route="S_W" depart="614.0" departLane="random" departSpeed="10" />
    <vehicle id="S_W_212" type="Bike" route="N_W" depart="619.0" departLane="random" departSpeed="10" />
    <vehicle id="S_N_213" type="Bike" route="S_N" depart="621.0" departLane="random" departSpeed="10" />
    <vehicle id="N_W_214" type="Auto" route="S_W" depart="622.0" departLane="random" departSpeed="10" />
    <vehicle id="W_N_215" type="Bike" route="W_N" depart="623.0" departLane="random" departSpeed="10" />
    <vehicle id="S_N_216" type="Bike" route="S_N" depart="625.0" departLane="random" departSpeed="10" />
    <vehicle id="N_S_217" type="Bike" route="N_S" depart="627.0" departLane="random" departSpeed="10" />
    <vehicle id="W_S_218" type="Bike" route="E_S" depart="629.0" departLane="random" departSpeed="10" />
    <vehicle id="N_W_219" type="Bike" route="S_W" depart="630.0" departLane="random" departSpeed="10" />
    <vehicle id="S_N_220" type="Auto" route="S_N" depart="630.0" departLane="random" departSpeed="10" />
    <vehicle id="W_S_221" type="Bike" route="E_S" depart="631.0" departLane="random" departSpeed="10" />
    <vehicle id="S_N_222" type="Bike" route="S_N" depart="631.0" departLane="random" departSpeed="10" />
    <vehicle id="W_N_223" type="Bike" route="W_N" depart="633.0" departLane="random" departSpeed="10" />
    <vehicle id="W_S_224" type="Auto" route="E_S" depart="633.0" departLane="random" departSpeed="10" />
    <vehicle id="S_N_225" type="Car" route="S_N" depart="634.0" departLane="random" departSpeed="10" />
    <vehicle id="N_W_226" type="Car" route="S_W" depart="635.0" departLane="random" departSpeed="10" />
    <vehicle id="N_W_227" type="Bike" route="S_W" depart="638.0" departLane="random" departSpeed="10" />
    <vehicle id="N_S_228" type="Bike" route="N_S" depart="640.0" departLane="random" departSpeed="10" />
    <vehicle id="S_N_229" type="Bike" route="S_N" depart="641.0" departLane="random" departSpeed="10" />
    <vehicle id="W_E_230" type="Bike" route="W_E" depart="642.0" departLane="random" departSpeed="10" />
    <vehicle id="W_E_231" type="Car" route="W_E" depart="642.0" departLane="random" departSpeed="10" />
    <vehicle id="W_S_232" type="Car" route="E_S" depart="643.0" departLane="random" departSpeed="10" />
    <vehicle id="S_N_233" type="Auto" route="S_N" depart="648.0" departLane="random" departSpeed="10" />
    <vehicle id="E_W_234" type="Bus" route="E_W" depart="649.0" departLane="random" departSpeed="10" />
    <vehicle id="E_W_235" type="Bike" route="E_W" depart="650.0" departLane="random" departSpeed="10" />
    <vehicle id="W_N_236" type="Car" route="W_N" depart="650.0" departLane="random" departSpeed="10" />
    <vehicle id="N_E_237" type="Bike" route="N_E" depart="651.0" departLane="random" departSpeed="10" />
    <vehicle id="S_W_238" type="Car" route="N_W" depart="651.0" departLane="random" departSpeed="10" />
    <vehicle id="W_E_239" type="Bus" route="W_E" depart="658.0" departLane="random" departSpeed="10" />
    <vehicle id="W_E_240" type="Auto" route="W_E" depart="661.0" departLane="random" departSpeed="10" />
    <vehicle id="E_W_241" type="Auto" route="E_W" depart="661.0" departLane="random" departSpeed="10" />
    <vehicle id="E_S_242" type="Bike" route="W_S" depart="663.0" departLane="random" departSpeed="10" />
    <vehicle id="W_E_243" type="Car" route="W_E" depart="664.0" departLane="random" departSpeed="10" />
    <vehicle id="N_S_244" type="Bike" route="N_S" depart="665.0" departLane="random" departSpeed="10" />
    <vehicle id="W_E_245" type="Bus" route="W_E" depart="667.0" departLane="random" departSpeed="10" />
    <vehicle id="W_S_246" type="Bike" route="E_S" depart="671.0" departLane="random" departSpeed="10" />
    <vehicle id="S_E_247" type="Bike" route="S_E" depart="671.0" departLane="random" departSpeed="10" />
    <vehicle id="N_W_248" type="Car" route="S_W" depart="672.0" departLane="random" departSpeed="10" />
    <vehicle id="W_N_249" type="Bike" route="W_N" depart="674.0" departLane="random" departSpeed="10" />
    <vehicle id="S_W_250" type="Auto" route="N_W" depart="674.0" departLane="random" departSpeed="10" />
    <vehicle id="N_S_251" type="Bike" route="N_S" depart="675.0" departLane="random" departSpeed="10" />
    <vehicle id="N_S_252" type="Bus" route="N_S" depart="676.0" departLane="random" departSpeed="10" />
    <vehicle id="N_E_253" type="Bike" route="N_E" depart="676.0" departLane="random" departSpeed="10" />
    <vehicle id="W_N_254" type="Bike" route="W_N" depart="676.0" departLane="random" departSpeed="10" />
    <vehicle id="W_S_255" type="Bike" route="E_S" depart="680.0" departLane="random" departSpeed="10" />
    <vehicle id="N_S_256" type="Car" route="N_S" depart="680.0" departLane="random" departSpeed="10" />
    <vehicle id="N_S_257" type="Car" route="N_S" depart="685.0" departLane="random" departSpeed="10" />
    <vehicle id="S_E_258" type="Bike" route="S_E" depart="685.0" departLane="random" departSpeed="10" />
    <vehicle id="W_E_259" type="Car" route="W_E" depart="686.0" departLane="random" departSpeed="10" />
    <vehicle id="S_N_260" type="Bike" route="S_N" depart="688.0" departLane="random" departSpeed="10" />
    <vehicle id="N_S_261" type="Bike" route="N_S" depart="688.0" departLane="random" departSpeed="10" />
    <vehicle id="W_E_262" type="Car" route="W_E" depart="690.0" departLane="random" departSpeed="10" />
    <vehicle id="N_S_263" type="Bike" route="N_S" depart="693.0" departLane="random" departSpeed="10" />
    <vehicle id="N_S_264" type="Bike" route="N_S" depart="694.0" departLane="random" departSpeed="10" />
    <vehicle id="N_W_265" type="Bike" route="S_W" depart="698.0" departLane="random" departSpeed="10" />
    <vehicle id="W_N_266" type="Car" route="W_N" depart="700.0" departLane="random" departSpeed="10" />
    <vehicle id="E_S_267" type="Bike" route="W_S" depart="703.0" departLane="random" departSpeed="10" />
    <vehicle id="S_N_268" type="Bike" route="S_N" depart="707.0" departLane="random" departSpeed="10" />
    <vehicle id="N_E_269" type="Car" route="N_E" depart="707.0" departLane="random" departSpeed="10" />
    <vehicle id="N_W_270" type="Bike" route="S_W" depart="708.0" departLane="random" departSpeed="10" />
    <vehicle id="S_N_271" type="Bike" route="S_N" depart="708.0" departLane="random" departSpeed="10" />
    <vehicle id="N_W_272" type="Bike" route="S_W" depart="708.0" departLane="random" departSpeed="10" />
    <vehicle id="W_N_273" type="Auto" route="W_N" depart="710.0" departLane="random" departSpeed="10" />
    <vehicle id="N_W_274" type="Bus" route="S_W" depart="711.0" departLane="random" departSpeed="10" />