
            <routes>
                <vType guiShape="passenger/hatchback" accel="1.0" decel="4.0" id="Car" color="white" width="2.5" length="4.0" minGap="1.0" maxSpeed="80.0" sigma="0.2"/>
                <vType guiShape="bus" accel="0.5" decel="5.0" id="Bus" color="blue" width="3.5" length="6.0" minGap="1.0" maxSpeed="40.0" sigma="0.3"/>
                <vType guiShape="motorcycle" accel="1.0" decel="4.0" id="Bike" color="green" width="1.5" length="2.0" minGap="1.0" maxSpeed="60.0" sigma="0.6"/>
                <vType guiShape="evehicle" accel="1.0" decel="4.0" id="Auto" color="yellow" width="2.0" length="3.0" minGap="1.0" maxSpeed="50.0" sigma="0.6"/>
                
                <route id="W_N" edges="W2TL TL2N"/>
                <route id="W_E" edges="W2TL TL2E"/>
                <route id="W_S" edges="W2TL TL2S"/>
                <route id="N_W" edges="N2TL TL2W"/>
                <route id="N_E" edges="N2TL TL2E"/>
                <route id="N_S" edges="N2TL TL2S"/>
                <route id="E_W" edges="E2TL TL2W"/>
                <route id="E_N" edges="E2TL TL2N"/>
                <route id="E_S" edges="E2TL TL2S"/>
                <route id="S_W" edges="S2TL TL2W"/>
                <route id="S_N" edges="S2TL TL2N"/>
                <route id="S_E" edges="S2TL TL2E"/>
    <vehicle id="W_E_0" type="Bike" route="W_E" depart="48.0" departLane="random" departSpeed="10" />
    <vehicle id="N_W_1" type="Auto" route="S_W" depart="52.0" departLane="random" departSpeed="10" />
    <vehicle id="N_E_2" type="Car" route="N_E" depart="75.0" departLane="random" departSpeed="10" />
    <vehicle id="W_N_3" type="Bike" route="W_N" depart="82.0" departLane="random" departSpeed="10" />
    <vehicle id="N_E_4" type="Bike" route="N_E" depart="87.0" departLane="random" departSpeed="10" />
    <vehicle id="W_E_5" type="Bus" route="W_E" depart="94.0" departLane="random" departSpeed="10" />
    <vehicle id="N_W_6" type="Auto" route="S_W" depart="96.0" departLane="random" departSpeed="10" />
    <vehicle id="N_S_7" type="Bike" route="N_S" depart="97.0" departLane="random" departSpeed="10" />
    <vehicle id="N_S_8" type="Bike" route="N_S" depart="105.0" departLane="random" departSpeed="10" />
    <vehicle id="S_N_9" type="Car" route="S_N" depart="108.0" departLane="random" departSpeed="10" />
    <vehicle id="W_S_10" type="Car" route="E_S" depart="112.0" departLane="random" departSpeed="10" />
    <vehicle id="N_S_11" type="Bike" route="N_S" depart="114.0" departLane="random" departSpeed="10" />
    <vehicle id="E_S_12" type="Bike" route="W_S" depart="122.0" departLane="random" departSpeed="10" />
    <vehicle id="E_W_13" type="Auto" route="E_W" depart="124.0" departLane="random" departSpeed="10" />
    <vehicle id="N_E_14" type="Bike" route="N_E" depart="125.0" departLane="random" departSpeed="10" />
    <vehicle id="E_W_15" type="Car" route="E_W" depart="129.0" departLane="random" departSpeed="10" />
    <vehicle id="W_N_16" type="Bike" route="W_N" depart="132.0" departLane="random" departSpeed="10" />
    <vehicle id="E_W_17" type="Bike" route="E_W" depart="140.0" departLane="random" departSpeed="10" />
    <vehicle id="W_N_18" type="Bike" route="W_N" depart="147.0" departLane="random" departSpeed="10" />
    <vehicle id="N_S_19" type="Car" route="N_S" depart="147.0" departLane="random" departSpeed="10" />
    <vehicle id="N_E_20" type="Bike" route="N_E" depart="148.0" departLane="random" departSpeed="10" />
    <vehicle id="W_E_21" type="Bus" route="W_E" depart="160.0" departLane="random" departSpeed="10" />
    <vehicle id="S_E_22" type="Bike" route="S_E" depart="184.0" departLane="random" departSpeed="10" />
    <vehicle id="N_W_23" type="Auto" route="S_W" depart="198.0" departLane="random" departSpeed="10" />
    <vehicle id="S_W_24" type="Bike" route="N_W" depart="200.0" departLane="random" departSpeed="10" />
    <vehicle id="S_E_25" type="Bike" route="S_E" depart="207.0" departLane="random" departSpeed="10" />
    <vehicle id="W_N_26" type="Bike" route="W_N" depart="207.0" departLane="random" departSpeed="10" />
    <vehicle id="N_E_27" type="Bike" route="N_E" depart="214.0" departLane="random" departSpeed="10" />
    <vehicle id="S_N_28" type="Car" route="S_N" depart="214.0" departLane="random" departSpeed="10" />
    <vehicle id="N_W_29" type="Bike" route="S_W" depart="221.0" departLane="random" departSpeed="10" />
    <vehicle id="W_N_30" type="Bike" route="W_N" depart="225.0" departLane="random" departSpeed="10" />
    <vehicle id="E_N_31" type="Bike" route="E_N" depart="226.0" departLane="random" departSpeed="10" />
    <vehicle id="S_N_32" type="Bike" route="S_N" depart="226.0" departLane="random" departSpeed="10" />
    <vehicle id="N_S_33" type="Bike" route="N_S" depart="228.0" departLane="random" departSpeed="10" />
    <vehicle id="N_E_34" type="Bike" route="N_E" depart="240.0" departLane="random" departSpeed="10" />
    <vehicle id="E_W_35" type="Bike" route="E_W" depart="241.0" departLane="random" departSpeed="10" />
    <vehicle id="N_S_36" type="Bike" route="N_S" depart="250.0" departLane="random" departSpeed="10" />
    <vehicle id="N_E_37" type="Bike" route="N_E" depart="251.0" departLane="random" departSpeed="10" />
    <vehicle id="W_E_38" type="Bike" route="W_E" depart="252.0" departLane="random" departSpeed="10" />
    <vehicle id="E_W_39" type="Bike" route="E_W" depart="255.0" departLane="random" departSpeed="10" />
    <vehicle id="W_E_40" type="Car" route="W_E" depart="256.0" departLane="random" departSpeed="10" />
    <vehicle id="E_S_41" type="Bike" route="W_S" depart="259.0" departLane="random" departSpeed="10" />
    <vehicle id="N_E_42" type="Bike" route="N_E" depart="269.0" departLane="random" departSpeed="10" />
    <vehicle id="E_S_43" type="Bike" route="W_S" depart="273.0" departLane="random" departSpeed="10" />
    <vehicle id="E_S_44" type="Auto" route="W_S" depart="276.0" departLane="random" departSpeed="10" />
    <vehicle id="W_E_45" type="Bus" route="W_E" depart="277.0" departLane="random" departSpeed="10" />
    <vehicle id="N_S_46" type="Auto" route="N_S" depart="279.0" departLane="random" departSpeed="10" />
    <vehicle id="W_N_47" type="Auto" route="W_N" depart="283.0" departLane="random" departSpeed="10" />
    <vehicle id="S_N_48" type="Bike" route="S_N" depart="290.0" departLane="random" departSpeed="10" />
    <vehicle id="N_W_49" type="Bike" route="S_W" depart="290.0" departLane="random" departSpeed="10" />
    <vehicle id="W_E_50" type="Bike" route="W_E" depart="291.0" departLane="random" departSpeed="10" />
    <vehicle id="W_S_51" type="Bike" route="E_S" depart="293.0" departLane="random" departSpeed="10" />
    <vehicle id="N_S_52" type="Bike" route="N_S" depart="298.0" departLane="random" departSpeed="10" />
    <vehicle id="N_E_53" type="Bike" route="N_E" depart="300.0" departLane="random" departSpeed="10" />
    <vehicle id="E_N_54" type="Bike" route="E_N" depart="302.0" departLane="random" departSpeed="10" />
    <vehicle id="E_W_55" type="Auto" route="E_W" depart="306.0" departLane="random" departSpeed="10" />
    <vehicle id="E_W_56" type="Auto" route="E_W" depart="307.0" departLane="random" departSpeed="10" />
    <vehicle id="S_N_57" type="Bike" route="S_N" depart="307.0" departLane="random" departSpeed="10" />
    <vehicle id="W_E_58" type="Bike" route="W_E" depart="311.0" departLane="random" departSpeed="10" />
    <vehicle id="W_E_59" type="Car" route="W_E" depart="316.0" departLane="random" departSpeed="10" />
    <vehicle id="N_S_60" type="Auto" route="N_S" depart="319.0" departLane="random" departSpeed="10" />
    <vehicle id="S_N_61" type="Bike" route="S_N" depart="323.0" departLane="random" departSpeed="10" />
    <vehicle id="W_E_62" type="Auto" route="W_E" depart="324.0" departLane="random" departSpeed="10" />
    <vehicle id="E_W_63" type="Car" route="E_W" depart="326.0" departLane="random" departSpeed="10" />
    <vehicle id="S_N_64" type="Car" route="S_N" depart="329.0" departLane="random" departSpeed="10" />
    <vehicle id="N_E_65" type="Bike" route="N_E" depart="332.0" departLane="random" departSpeed="10" />
    <vehicle id="W_N_66" type="Bike" route="W_N" depart="333.0" departLane="random" departSpeed="10" />
    <vehicle id="S_N_67" type="Bike" route="S_N" depart="336.0" departLane="random" departSpeed="10" />
    <vehicle id="N_E_68" type="Car" route="N_E" depart="339.0" departLane="random" departSpeed="10" />
    <vehicle id="E_N_69" type="Car" route="E_N" depart="343.0" departLane="random" departSpeed="10" />
    <vehicle id="E_W_70" type="Bike" route="E_W" depart="344.0" departLane="random" departSpeed="10" />
    <vehicle id="E_S_71" type="Bike" route="W_S" depart="348.0" departLane="random" departSpeed="10" />
    <vehicle id="W_N_72" type="Auto" route="W_N" depart="349.0" departLane="random" departSpeed="10" />
    <vehicle id="S_N_73" type="Bike" route="S_N" depart="349.0" departLane="random" departSpeed="10" />
    <vehicle id="E_N_74" type="Bike" route="E_N" depart="351.0" departLane="random" departSpeed="10" />
    <vehicle id="N_E_75" type="Bike" route="N_E" depart="351.0" departLane="random" departSpeed="10" />
    <vehicle id="S_E_76" type="Auto" route="S_E" depart="353.0" departLane="random" departSpeed="10" />
    <vehicle id="W_S_77" type="Car" route="E_S" depart="353.0" departLane="random" departSpeed="10" />
    <vehicle id="W_S_78" type="Bike" route="E_S" depart="354.0" departLane="random" departSpeed="10" />
    <vehicle id="N_E_79" type="Auto" route="N_E" depart="355.0" departLane="random" departSpeed="10" />
    <vehicle id="W_S_80" type="Auto" route="E_S" depart="361.0" departLane="random" departSpeed="10" />
    <vehicle id="E_S_81" type="Bike" route="W_S" depart="362.0" departLane="random" departSpeed="10" />
    <vehicle id="W_N_82" type="Bike" route="W_N" depart="362.0" departLane="random" departSpeed="10" />
    <vehicle id="E_N_83" type="Bike" route="E_N" depart="367.0" departLane="random" departSpeed="10" />
    <vehicle id="E_W_84" type="Car" route="E_W" depart="367.0" departLane="random" departSpeed="10" />
    <vehicle id="E_W_85" type="Bike" route="E_W" depart="368.0" departLane="random" departSpeed="10" />
    <vehicle id="E_N_86" type="Bus" route="E_N" depart="369.0" departLane="random" departSpeed="10" />
    <vehicle id="E_W_87" type="Bus" route="E_W" depart="370.0" departLane="random" departSpeed="10" />
    <vehicle id="W_E_88" type="Car" route="W_E" depart="370.0" departLane="random" departSpeed="10" />
    <vehicle id="N_S_89" type="Bike" route="N_S" depart="371.0" departLane="random" departSpeed="10" />
    <vehicle id="S_E_90" type="Bike" route="S_E" depart="372.0" departLane="random" departSpeed="10" />
    <vehicle id="N_W_91" type="Bike" route="S_W" depart="374.0" departLane="random" departSpeed="10" />
    <vehicle id="S_N_92" type="Car" route="S_N" depart="374.0" departLane="random" departSpeed="10" />
    <vehicle id="S_N_93" type="Bike" route="S_N" depart="375.0" departLane="random" departSpeed="10" />
    <vehicle id="W_S_94" type="Bus" route="E_S" depart="381.0" departLane="random" departSpeed="10" />
    <vehicle id="W_N_95" type="Auto" route="W_N" depart="383.0" departLane="random" departSpeed="10" />
    <vehicle id="W_N_96" type="Bike" route="W_N" depart="383.0" departLane="random" departSpeed="10" />
    <vehicle id="N_E_97" type="Car" route="N_E" depart="384.0" departLane="random" departSpeed="10" />
    <vehicle id="W_S_98" type="Bike" route="E_S" depart="386.0" departLane="random" departSpeed="10" />
    <vehicle id="E_N_99" type="Bike" route="E_N" depart="386.0" departLane="random" departSpeed="10" />
    <vehicle id="E_S_100" type="Car" route="W_S" depart="389.0" departLane="random" departSpeed="10" />
    <vehicle id="W_S_101" type="Bike" route="E_S" depart="392.0" departLane="random" departSpeed="10" />
    <vehicle id="N_S_102" type="Bike" route="N_S" depart="392.0" departLane="random" departSpeed="10" />
    <vehicle id="W_N_103" type="Car" route="W_N" depart="393.0" departLane="random" departSpeed="10" />
    <vehicle id="W_N_104" type="Bike" route="W_N" depart="396.0" departLane="random" departSpeed="10" />
    <vehicle id="W_N_105" type="Car" route="W_N" depart="400.0" departLane="random" departSpeed="10" />
    <vehicle id="N_W_106" type="Bike" route="S_W" depart="400.0" departLane="random" departSpeed="10" />
    <vehicle id="W_N_107" type="Bike" route="W_N" depart="402.0" departLane="random" departSpeed="10" />
    <vehicle id="N_E_108" type="Bike" route="N_E" depart="403.0" departLane="random" departSpeed="10" />
    <vehicle id="E_W_109" type="Car" route="E_W" depart="404.0" departLane="random" departSpeed="10" />
    <vehicle id="E_S_110" type="Car" route="W_S" depart="409.0" departLane="random" departSpeed="10" />
    <vehicle id="W_E_111" type="Car" route="W_E" depart="410.0" departLane="random" departSpeed="10" />
    <vehicle id="W_S_112" type="Bike" route="E_S" depart="410.0" departLane="random" departSpeed="10" />
    <vehicle id="W_S_113" type="Bike" route="E_S" depart="414.0" departLane="random" departSpeed="10" />
    <vehicle id="W_E_114" type="Car" route="W_E" depart="414.0" departLane="random" departSpeed="10" />
    <vehicle id="E_W_115" type="Bike" route="E_W" depart="415.0" departLane="random" departSpeed="10" />
    <vehicle id="N_S_116" type="Car" route="N_S" depart="417.0" departLane="random" departSpeed="10" />
    <vehicle id="W_S_117" type="Car" route="E_S" depart="417.0" departLane="random" departSpeed="10" />
    <vehicle id="S_W_118" type="Bike" route="N_W" depart="419.0" departLane="random" departSpeed="10" />
    <vehicle id="S_N_119" type="Auto" route="S_N" depart="422.0" departLane="random" departSpeed="10" />
    <vehicle id="E_S_120" type="Bike" route="W_S" depart="423.0" departLane="random" departSpeed="10" />
    <vehicle id="W_E_121" type="Bike" route="W_E" depart="424.0" departLane="random" departSpeed="10" />
    <vehicle id="W_S_122" type="Bike" route="E_S" depart="427.0" departLane="random" departSpeed="10" />
    <vehicle id="E_W_123" type="Bike" route="E_W" depart="430.0" departLane="random" departSpeed="10" />
    <vehicle id="N_E_124" type="Bike" route="N_E" depart="431.0" departLane="random" departSpeed="10" />
    <vehicle id="E_N_125" type="Car" route="E_N" depart="431.0" departLane="random" departSpeed="10" />
    <vehicle id="N_W_126" type="Auto" route="S_W" depart="431.0" departLane="random" departSpeed="10" />
    <vehicle id="N_E_127" type="Auto" route="N_E" depart="436.0" departLane="random" departSpeed="10" />
    <vehicle id="W_S_128" type="Bike" route="E_S" depart="438.0" departLane="random" departSpeed="10" />
    <vehicle id="N_S_129" type="Auto" route="N_S" depart="440.0" departLane="random" departSpeed="10" />
    <vehicle id="W_E_130" type="Car" route="W_E" depart="441.0" departLane="random" departSpeed="10" />
    <vehicle id="W_N_131" type="Bike" route="W_N" depart="443.0" departLane="random" departSpeed="10" />
    <vehicle id="N_S_132" type="Bike" route="N_S" depart="443.0" departLane="random" departSpeed="10" />
    <vehicle id="S_N_133" type="Auto" route="S_N" depart="444.0" departLane="random" departSpeed="10" />
    <vehicle id="E_W_134" type="Car" route="E_W" depart="445.0" departLane="random" departSpeed="10" />
    <vehicle id="N_S_135" type="Car" route="N_S" depart="445.0" departLane="random" departSpeed="10" />
    <vehicle id="E_W_136" type="Bike" route="E_W" depart="449.0" departLane="random" departSpeed="10" />
    <vehicle id="S_W_137" type="Bike" route="N_W" depart="449.0" departLane="random" departSpeed="10" />
    <vehicle id="E_S_138" type="Bike" route="W_S" depart="450.0" departLane="random" departSpeed="10" />
    <vehicle id="W_E_139" type="Bus" route="W_E" depart="456.0" departLane="random" departSpeed="10" />
    <vehicle id="W_S_140" type="Bike" route="E_S" depart="456.0" departLane="random" departSpeed="10" />
    <vehicle id="N_S_141" type="Bike" route="N_S" depart="458.0" departLane="random" departSpeed="10" />
    <vehicle id="N_W_142" type="Auto" route="S_W" depart="463.0" departLane="random" departSpeed="10" />
    <vehicle id="N_W_143" type="Bike" route="S_W" depart="463.0" departLane="random" departSpeed="10" />
    <vehicle id="S_W_144" type="Auto" route="N_W" depart="464.0" departLane="random" departSpeed="10" />
    <vehicle id="E_W_145" type="Bike" route="E_W" depart="467.0" departLane="random" departSpeed="10" />
    <vehicle id="S_W_146" type="Bike" route="N_W" depart="470.0" departLane="random" departSpeed="10" />
    <vehicle id="N_W_147" type="Bike" route="S_W" depart="473.0" departLane="random" departSpeed="10" />
    <vehicle id="N_E_148" type="Bike" route="N_E" depart="480.0" departLane="random" departSpeed="10" />
    <vehicle id="N_W_149" type="Car" route="S_W" depart="481.0" departLane="random" departSpeed="10" />
    <vehicle id="E_W_150" type="Car" route="E_W" depart="483.0" departLane="random" departSpeed="10" />
    <vehicle id="W_S_151" type="Car" route="E_S" depart="485.0" departLane="random" departSpeed="10" />
    <vehicle id="N_E_152" type="Bike" route="N_E" depart="486.0" departLane="random" departSpeed="10" />
    <vehicle id="N_S_153" type="Bike" route="N_S" depart="487.0" departLane="random" departSpeed="10" />
    <vehicle id="N_E_154" type="Car" route="N_E" depart="487.0" departLane="random" departSpeed="10" />
    <vehicle id="N_E_155" type="Bike" route="N_E" depart="487.0" departLane="random" departSpeed="10" />
    <vehicle id="N_E_156" type="Bike" route="N_E" depart="489.0" departLane="random" departSpeed="10" />
    <vehicle id="N_E_157" type="Car" route="N_E" depart="489.0" departLane="random" departSpeed="10" />
    <vehicle id="N_W_158" type="Bike" route="S_W" depart="491.0" departLane="random" departSpeed="10" />
    <vehicle id="N_E_159" type="Bike" route="N_E" depart="494.0" departLane="random" departSpeed="10" />
    <vehicle id="W_E_160" type="Bike" route="W_E" depart="496.0" departLane="random" departSpeed="10" />
    <vehicle id="E_W_161" type="Auto" route="E_W" depart="500.0" departLane="random" departSpeed="10" />
    <vehicle id="W_N_162" type="Car" route="W_N" depart="501.0" departLane="random" departSpeed="10" />
    <vehicle id="N_E_163" type="Bike" route="N_E" depart="503.0" departLane="random" departSpeed="10" />
    <vehicle id="N_W_164" type="Bike" route="S_W" depart="505.0" departLane="random" departSpeed="10" />
    <vehicle id="N_E_165" type="Bike" route="N_E" depart="505.0" departLane="random" departSpeed="10" />
    <vehicle id="S_N_166" type="Bike" route="S_N" depart="506.0" departLane="random" departSpeed="10" />
    <vehicle id="E_S_167" type="Bike" route="W_S" depart="507.0" departLane="random" departSpeed="10" />
    <vehicle id="N_W_168" type="Auto" route="S_W" depart="508.0" departLane="random" departSpeed="10" />
    <vehicle id="W_N_169" type="Auto" route="W_N" depart="509.0" departLane="random" departSpeed="10" />
    <vehicle id="E_W_170" type="Auto" route="E_W" depart="510.0" departLane="random" departSpeed="10" />
    <vehicle id="E_W_171" type="Car" route="E_W" depart="511.0" departLane="random" departSpeed="10" />
    <vehicle id="S_N_172" type="Bike" route="S_N" depart="514.0" departLane="random" departSpeed="10" />
    <vehicle id="W_E_173" type="Bike" route="W_E" depart="518.0" departLane="random" departSpeed="10" />
    <vehicle id="N_E_174" type="Car" route="N_E" depart="518.0" departLane="random" departSpeed="10" />
    <vehicle id="W_S_175" type="Bike" route="E_S" depart="522.0" departLane="random" departSpeed="10" />
    <vehicle id="N_W_176" type="Bike" route="S_W" depart="525.0" departLane="random" departSpeed="10" />
    <vehicle id="N_E_177" type="Car" route="N_E" depart="526.0" departLane="random" departSpeed="10" />
    <vehicle id="W_N_178" type="Bike" route="W_N" depart="526.0" departLane="random" departSpeed="10" />
    <vehicle id="W_S_179" type="Car" route="E_S" depart="529.0" departLane="random" departSpeed="10" />
    <vehicle id="W_S_180" type="Auto" route="E_S" depart="531.0" departLane="random" departSpeed="10" />
    <vehicle id="S_E_181" type="Bike" route="S_E" depart="532.0" departLane="random" departSpeed="10" />
    <vehicle id="N_W_182" type="Bus" route="S_W" depart="532.0" departLane="random" departSpeed="10" />
    <vehicle id="N_E_183" type="Bike" route="N_E" depart="533.0" departLane="random" departSpeed="10" />
    <vehicle id="N_S_184" type="Bike" route="N_S" depart="534.0" departLane="random" departSpeed="10" />
    <vehicle id="N_S_185" type="Car" route="N_S" depart="535.0" departLane="random" departSpeed="10" />
    <vehicle id="W_S_186" type="Bike" route="E_S" depart="538.0" departLane="random" departSpeed="10" />
    <vehicle id="W_S_187" type="Auto" route="E_S" depart="538.0" departLane="random" departSpeed="10" />
    <vehicle id="N_S_188" type="Auto" route="N_S" depart="539.0" departLane="random" departSpeed="10" />
    <vehicle id="S_N_189" type="Bike" route="S_N" depart="540.0" departLane="random" departSpeed="10" />
    <vehicle id="W_E_190" type="Bike" route="W_E" depart="541.0" departLane="random" departSpeed="10" />
    <vehicle id="W_N_191" type="Auto" route="W_N" depart="541.0" departLane="random" departSpeed="10" />
    <vehicle id="W_N_192" type="Bus" route="W_N" depart="543.0" departLane="random" departSpeed="10" />
    <vehicle id="S_E_193" type="Car" route="S_E" depart="543.0" departLane="random" departSpeed="10" />
    <vehicle id="W_E_194" type="Bike" route="W_E" depart="547.0" departLane="random" departSpeed="10" />
    <vehicle id="N_E_195" type="Bike" route="N_E" depart="548.0" departLane="random" departSpeed="10" />
    <vehicle id="W_S_196" type="Bus" route="E_S" depart="548.0" departLane="random" departSpeed="10" />
    <vehicle id="W_E_197" type="Auto" route="W_E" depart="548.0" departLane="random" departSpeed="10" />
    <vehicle id="S_E_198" type="Car" route="S_E" depart="551.0" departLane="random" departSpeed="10" />
    <vehicle id="N_W_199" type="Bus" route="S_W" depart="552.0" departLane="random" departSpeed="10" />
    <vehicle id="E_N_200" type="Auto" route="E_N" depart="553.0" departLane="random" departSpeed="10" />
    <vehicle id="W_E_201" type="Bike" route="W_E" depart="554.0" departLane="random" departSpeed="10" />
    <vehicle id="W_S_202" type="Auto" route="E_S" depart="555.0" departLane="random" departSpeed="10" />
    <vehicle id="N_E_203" type="Bike" route="N_E" depart="555.0" departLane="random" departSpeed="10" />
    <vehicle id="N_E_204" type="Car" route="N_E" depart="555.0" departLane="random" departSpeed="10" />
    <vehicle id="W_S_205" type="Bike" route="E_S" depart="558.0" departLane="random" departSpeed="10" />
    <vehicle id="N_E_206" type="Bus" route="N_E" depart="559.0" departLane="random" departSpeed="10" />
    <vehicle id="S_N_207" type="Bus" route="S_N" depart="560.0" departLane="random" departSpeed="10" />
    <vehicle id="S_N_208" type="Car" route="S_N" depart="561.0" departLane="random" departSpeed="10" />
    <vehicle id="W_E_209" type="Auto" route="W_E" depart="563.0" departLane="random" departSpeed="10" />
    <vehicle id="W_S_210" type="Auto" route="E_S" depart="567.0" departLane="random" departSpeed="10" />
    <vehicle id="N_W_211" type="Bike" route="S_W" depart="567.0" departLane="random" departSpeed="10" />
    <vehicle id="N_E_212" type="Car" route="N_E" depart="567.0" departLane="random" departSpeed="10" />
    <vehicle id="S_N_213" type="Car" route="S_N" depart="568.0" departLane="random" departSpeed="10" />
    <vehicle id="N_W_214" type="Car" route="S_W" depart="570.0" departLane="random" departSpeed="10" />
    <vehicle id="W_S_215" type="Auto" route="E_S" depart="571.0" departLane="random" departSpeed="10" />
    <vehicle id="W_N_216" type="Bike" route="W_N" depart="571.0" departLane="random" departSpeed="10" />
    <vehicle id="W_S_217" type="Bike" route="E_S" depart="573.0" departLane="random" departSpeed="10" />
    <vehicle id="N_E_218" type="Bike" route="N_E" depart="576.0" departLane="random" departSpeed="10" />
    <vehicle id="N_E_219" type="Car" route="N_E" depart="576.0" departLane="random" departSpeed="10" />
    <vehicle id="E_W_220" type="Car" route="E_W" depart="578.0" departLane="random" departSpeed="10" />
    <vehicle id="W_N_221" type="Bike" route="W_N" depart="579.0" departLane="random" departSpeed="10" />
    <vehicle id="N_W_222" type="Bus" route="S_W" depart="582.0" departLane="random" departSpeed="10" />
    <vehicle id="W_S_223" type="Bike" route="E_S" depart="582.0" departLane="random" departSpeed="10" />
    <vehicle id="E_W_224" type="Bike" route="E_W" depart="583.0" departLane="random" departSpeed="10" />
    <vehicle id="N_S_225" type="Bike" route="N_S" depart="584.0" departLane="random" departSpeed="10" />
    <vehicle id="W_E_226" type="Bike" route="W_E" depart="587.0" departLane="random" departSpeed="10" />
    <vehicle id="S_N_227" type="Bike" route="S_N" depart="588.0" departLane="random" departSpeed="10" />
    <vehicle id="W_E_228" type="Auto" route="W_E" depart="590.0" departLane="random" departSpeed="10" />
    <vehicle id="S_N_229" type="Bus" route="S_N" depart="591.0" departLane="random" departSpeed="10" />
    <vehicle id="W_N_230" type="Bike" route="W_N" depart="591.0" departLane="random" departSpeed="10" />
    <vehicle id="W_E_231" type="Auto" route="W_E" depart="592.0" departLane="random" departSpeed="10" />
    <vehicle id="W_N_232" type="Car" route="W_N" depart="592.0" departLane="random" departSpeed="10" />
    <vehicle id="W_E_233" type="Auto" route="W_E" depart="593.0" departLane="random" departSpeed="10" />
    <vehicle id="W_S_234" type="Car" route="E_S" depart="594.0" departLane="random" departSpeed="10" />
    <vehicle id="N_E_235" type="Bike" route="N_E" depart="595.0" departLane="random" departSpeed="10" />
    <vehicle id="N_E_236" type="Auto" route="N_E" depart="596.0" departLane="random" departSpeed="10" />
    <vehicle id="N_W_237" type="Bike" route="S_W" depart="602.0" departLane="random" departSpeed="10" />
    <vehicle id="E_W_238" type="Auto" route="E_W" depart="602.0" departLane="random" departSpeed="10" />
    <vehicle id="W_N_239" type="Car" route="W_N" depart="602.0" departLane="random" departSpeed="10" />
    <vehicle id="S_W_240" type="Bike" route="N_W" depart="604.0" departLane="random" departSpeed="10" />
    <vehicle id="N_W_241" type="Car" route="S_W" depart="606.0" departLane="random" departSpeed="10" />
    <vehicle id="N_W_242" type="Bike" route="S_W" depart="610.0" departLane="random" departSpeed="10" />
    <vehicle id="N_W_243" type="Car" route="S_W" depart="613.0" departLane="random" departSpeed="10" />
    <vehicle id="N_E_244" type="Bike" route="N_E" depart="613.0" departLane="random" departSpeed="10" />
    <vehicle id="W_N_245" type="Bike" route="W_N" depart="614.0" departLane="random" departSpeed="10" />
    <vehicle id="S_E_246" type="Bike" route="S_E" depart="616.0" departLane="random" departSpeed="10" />
    <vehicle id="W_N_247" type="Car" route="W_N" depart="617.0" departLane="random" departSpeed="10" />
    <vehicle id="W_S_248" type="Car" route="E_S" depart="619.0" departLane="random" departSpeed="10" />
    <vehicle id="E_W_249" type="Bike" route="E_W" depart="619.0" departLane="random" departSpeed="10" />
    <vehicle id="W_S_250" type="Auto" route="E_S" depart="620.0" departLane="random" departSpeed="10" />
    <vehicle id="E_S_251" type="Bike" route="W_S" depart="620.0" departLane="random" departSpeed="10" />
    <vehicle id="W_S_252" type="Car" route="E_S" depart="622.0" departLane="random" departSpeed="10" />
    <vehicle id="W_S_253" type="Bike" route="E_S" depart="622.0" departLane="random" departSpeed="10" />
    <vehicle id="W_E_254" type="Bike" route="W_E" depart="623.0" departLane="random" departSpeed="10" />
    <vehicle id="W_E_255" type="Bike" route="W_E" depart="625.0" departLane="random" departSpeed="10" />
    <vehicle id="S_N_256" type="Bike" route="S_N" depart="626.0" departLane="random" departSpeed="10" />
    <vehicle id="N_S_257" type="Bike" route="N_S" depart="627.0" departLane="random" departSpeed="10" />
    <vehicle id="N_E_258" type="Bike" route="N_E" depart="631.0" departLane="random" departSpeed="10" />
    <vehicle id="N_E_259" type="Bike" route="N_E" depart="631.0" departLane="random" departSpeed="10" />
    <vehicle id="S_N_260" type="Bike" route="S_N" depart="632.0" departLane="random" departSpeed="10" />
    <vehicle id="E_W_261" type="Car" route="E_W" depart="634.0" departLane="random" departSpeed="10" />
    <vehicle id="E_N_262" type="Bike" route="E_N" depart="635.0" departLane="random" departSpeed="10" />
    <vehicle id="N_W_263" type="Bus" route="S_W" depart="639.0" departLane="random" departSpeed="10" />
    <vehicle id="N_S_264" type="Bike" route="N_S" depart="641.0" departLane="random" departSpeed="10" />
    <vehicle id="N_W_265" type="Auto" route="S_W" depart="641.0" departLane="random" departSpeed="10" />
    <vehicle id="W_N_266" type="Bike" route="W_N" depart="643.0" departLane="random" departSpeed="10" />
    <vehicle id="W_S_267" type="Bike" route="E_S" depart="645.0" departLane="random" departSpeed="10" />
    <vehicle id="S_N_268" type="Bike" route="S_N" depart="645.0" departLane="random" departSpeed="10" />
    <vehicle id="S_N_269" type="Bike" route="S_N" depart="646.0" departLane="random" departSpeed="10" />
    <vehicle id="E_N_270" type="Bike" route="E_N" depart="647.0" departLane="random" departSpeed="10" />
    <vehicle id="N_S_271" type="Bike" route="N_S" depart="647.0" departLane="random" departSpeed="10" />
    <vehicle id="W_E_272" type="Bike" route="W_E" depart="647.0" departLane="random" departSpeed="10" />
    <vehicle id="W_N_273" type="Bike" route="W_N" depart="648.0" departLane="random" departSpeed="10" />
    <vehicle id="E_W_274" type="Bike" route="E_W" depart="650.0" departLane="random" departSpeed="10" />