
            <routes>
                <vType guiShape="passenger/hatchback" accel="1.0" decel="4.0" id="Car" color="white" width="2.5" length="4.0" minGap="1.0" maxSpeed="80.0" sigma="0.2"/>
                <vType guiShape="bus" accel="0.5" decel="5.0" id="Bus" color="blue" width="3.5" length="6.0" minGap="1.0" maxSpeed="40.0" sigma="0.3"/>
                <vType guiShape="motorcycle" accel="1.0" decel="4.0" id="Bike" color="green" width="1.5" length="2.0" minGap="1.0" maxSpeed="60.0" sigma="0.6"/>
                <vType guiShape="evehicle" accel="1.0" decel="4.0" id="Auto" color="yellow" width="2.0" length="3.0" minGap="1.0" maxSpeed="50.0" sigma="0.6"/>
                
                <route id="W_N" edges="W2TL TL2N"/>
                <route id="W_E" edges="W2TL TL2E"/>
                <route id="W_S" edges="W2TL TL2S"/>
                <route id="N_W" edges="N2TL TL2W"/>
                <route id="N_E" edges="N2TL TL2E"/>
                <route id="N_S" edges="N2TL TL2S"/>
                <route id="E_W" edges="E2TL TL2W"/>
                <route id="E_N" edges="E2TL TL2N"/>
                <route id="E_S" edges="E2TL TL2S"/>
                <route id="S_W" edges="S2TL TL2W"/>
                <route id="S_N" edges="S2TL TL2N"/>
                <route id="S_E" edges="S2TL TL2E"/>
    <vehicle id="N_E_0" type="Bus" route="N_E" depart="33.0" departLane="random" departSpeed="10" />
    <vehicle id="N_E_1" type="Car" route="N_E" depart="37.0" departLane="random" departSpeed="10" />
    <vehicle id="S_W_2" type="Car" route="N_W" depart="41.0" departLane="random" departSpeed="10" />
    <vehicle id="N_W_3" type="Auto" route="S_W" depart="78.0" departLane="random" departSpeed="10" />
    <vehicle id="W_N_4" type="Auto" route="W_N" depart="80.0" departLane="random" departSpeed="10" />
    <vehicle id="W_N_5" type="Bike" route="W_N" depart="81.0" departLane="random" departSpeed="10" />
    <vehicle id="E_S_6" type="Bike" route="W_S" depart="83.0" departLane="random" departSpeed="10" />
    <vehicle id="E_W_7" type="Bike" route="E_W" depart="89.0" departLane="random" departSpeed="10" />
    <vehicle id="N_E_8" type="Bike" route="N_E" depart="98.0" departLane="random" departSpeed="10" />
    <vehicle id="N_E_9" type="Car" route="N_E" depart="102.0" departLane="random" departSpeed="10" />
    <vehicle id="N_W_10" type="Car" route="S_W" depart="105.0" departLane="random" departSpeed="10" />
    <vehicle id="W_N_11" type="Bus" route="W_N" depart="110.0" departLane="random" departSpeed="10" />
    <vehicle id="W_N_12" type="Car" route="W_N" depart="112.0" departLane="random" departSpeed="10" />
    <vehicle id="N_E_13" type="Auto" route="N_E" depart="113.0" departLane="random" departSpeed="10" />
    <vehicle id="W_S_14" type="Bike" route="E_S" depart="117.0" departLane="random" departSpeed="10" />
    <vehicle id="E_W_15" type="Bike" route="E_W" depart="124.0" departLane="random" departSpeed="10" />
    <vehicle id="W_S_16" type="Car" route="E_S" depart="128.0" departLane="random" departSpeed="10" />
    <vehicle id="W_N_17" type="Bike" route="W_N" depart="137.0" departLane="random" departSpeed="10" />
    <vehicle id="W_S_18" type="Bike" route="E_S" depart="157.0" departLane="random" departSpeed="10" />
    <vehicle id="W_N_19" type="Auto" route="W_N" depart="157.0" departLane="random" departSpeed="10" />
    <vehicle id="W_E_20" type="Bike" route="W_E" depart="158.0" departLane="random" departSpeed="10" />
    <vehicle id="W_N_21" type="Auto" route="W_N" depart="159.0" departLane="random" departSpeed="10" />
    <vehicle id="W_N_22" type="Bike" route="W_N" depart="163.0" departLane="random" departSpeed="10" />
    <vehicle id="W_S_23" type="Bus" route="E_S" depart="163.0" departLane="random" departSpeed="10" />
    <vehicle id="N_S_24" type="Bus" route="N_S" depart="166.0" departLane="random" departSpeed="10" />
    <vehicle id="S_N_25" type="Auto" route="S_N" depart="182.0" departLane="random" departSpeed="10" />
    <vehicle id="W_S_26" type="Bus" route="E_S" depart="184.0" departLane="random" departSpeed="10" />
    <vehicle id="W_N_27" type="Car" route="W_N" depart="197.0" departLane="random" departSpeed="10" />
    <vehicle id="W_N_28" type="Car" route="W_N" depart="201.0" departLane="random" departSpeed="10" />
    <vehicle id="W_E_29" type="Bike" route="W_E" depart="202.0" departLane="random" departSpeed="10" />
    <vehicle id="W_S_30" type="Bike" route="E_S" depart="202.0" departLane="random" departSpeed="10" />
    <vehicle id="W_S_31" type="Bike" route="E_S" depart="205.0" departLane="random" departSpeed="10" />
    <vehicle id="N_S_32" type="Car" route="N_S" depart="205.0" departLane="random" departSpeed="10" />
    <vehicle id="N_E_33" type="Auto" route="N_E" depart="206.0" departLane="random" departSpeed="10" />
    <vehicle id="N_S_34" type="Auto" route="N_S" depart="213.0" departLane="random" departSpeed="10" />
    <vehicle id="W_E_35" type="Bike" route="W_E" depart="214.0" departLane="random" departSpeed="10" />
    <vehicle id="W_S_36" type="Bike" route="E_S" depart="215.0" departLane="random" departSpeed="10" />
    <vehicle id="E_W_37" type="Car" route="E_W" depart="216.0" departLane="random" departSpeed="10" />
    <vehicle id="W_E_38" type="Bike" route="W_E" depart="216.0" departLane="random" departSpeed="10" />
    <vehicle id="N_W_39" type="Bike" route="S_W" depart="219.0" departLane="random" departSpeed="10" />
    <vehicle id="W_N_40" type="Bike" route="W_N" depart="225.0" departLane="random" departSpeed="10" />
    <vehicle id="N_W_41" type="Bike" route="S_W" depart="227.0" departLane="random" departSpeed="10" />
    <vehicle id="E_W_42" type="Car" route="E_W" depart="227.0" departLane="random" departSpeed="10" />
    <vehicle id="W_E_43" type="Bike" route="W_E" depart="227.0" departLane="random" departSpeed="10" />
    <vehicle id="W_E_44" type="Bike" route="W_E" depart="230.0" departLane="random" departSpeed="10" />
    <vehicle id="W_E_45" type="Bike" route="W_E" depart="230.0" departLane="random" departSpeed="10" />
    <vehicle id="N_W_46" type="Bike" route="S_W" depart="231.0" departLane="random" departSpeed="10" />
    <vehicle id="W_S_47" type="Auto" route="E_S" depart="235.0" departLane="random" departSpeed="10" />
    <vehicle id="N_E_48" type="Bike" route="N_E" depart="239.0" departLane="random" departSpeed="10" />
    <vehicle id="S_E_49" type="Bike" route="S_E" depart="245.0" departLane="random" departSpeed="10" />
    <vehicle id="W_S_50" type="Auto" route="E_S" depart="245.0" departLane="random" departSpeed="10" />
    <vehicle id="S_N_51" type="Bike" route="S_N" depart="262.0" departLane="random" departSpeed="10" />
    <vehicle id="W_S_52" type="Auto" route="E_S" depart="264.0" departLane="random" departSpeed="10" />
    <vehicle id="N_S_53" type="Car" route="N_S" depart="267.0" departLane="random" departSpeed="10" />
    <vehicle id="W_E_54" type="Bike" route="W_E" depart="268.0" departLane="random" departSpeed="10" />
    <vehicle id="E_N_55" type="Auto" route="E_N" depart="278.0" departLane="random" departSpeed="10" />
    <vehicle id="S_N_56" type="Bike" route="S_N" depart="279.0" departLane="random" departSpeed="10" />
    <vehicle id="W_S_57" type="Bike" route="E_S" depart="280.0" departLane="random" departSpeed="10" />
    <vehicle id="S_N_58" type="Bike" route="S_N" depart="284.0" departLane="random" departSpeed="10" />
    <vehicle id="S_N_59" type="Bus" route="S_N" depart="290.0" departLane="random" departSpeed="10" />
    <vehicle id="E_N_60" type="Car" route="E_N" depart="291.0" departLane="random" departSpeed="10" />
    <vehicle id="S_N_61" type="Auto" route="S_N" depart="292.0" departLane="random" departSpeed="10" />
    <vehicle id="S_N_62" type="Bike" route="S_N" depart="292.0" departLane="random" departSpeed="10" />
    <vehicle id="N_S_63" type="Car" route="N_S" depart="296.0" departLane="random" departSpeed="10" />
    <vehicle id="W_N_64" type="Bike" route="W_N" depart="296.0" departLane="random" departSpeed="10" />
    <vehicle id="N_E_65" type="Bike" route="N_E" depart="298.0" departLane="random" departSpeed="10" />
    <vehicle id="E_W_66" type="Bike" route="E_W" depart="301.0" departLane="random" departSpeed="10" />
    <vehicle id="W_N_67" type="Bike" route="W_N" depart="302.0" departLane="random" departSpeed="10" />
    <vehicle id="N_E_68" type="Bike" route="N_E" depart="304.0" departLane="random" departSpeed="10" />
    <vehicle id="N_E_69" type="Bike" route="N_E" depart="306.0" departLane="random" departSpeed="10" />
    <vehicle id="S_E_70" type="Bike" route="S_E" depart="309.0" departLane="random" departSpeed="10" />
    <vehicle id="S_N_71" type="Auto" route="S_N" depart="311.0" departLane="random" departSpeed="10" />
    <vehicle id="S_E_72" type="Bike" route="S_E" depart="313.0" departLane="random" departSpeed="10" />
    <vehicle id="W_S_73" type="Car" route="E_S" depart="314.0" departLane="random" departSpeed="10" />
    <vehicle id="N_E_74" type="Auto" route="N_E" depart="318.0" departLane="random" departSpeed="10" />
    <vehicle id="S_N_75" type="Auto" route="S_N" depart="318.0" departLane="random" departSpeed="10" />
    <vehicle id="S_E_76" type="Auto" route="S_E" depart="320.0" departLane="random" departSpeed="10" />
    <vehicle id="S_W_77" type="Car" route="N_W" depart="321.0" departLane="random" departSpeed="10" />
    <vehicle id="S_N_78" type="Bike" route="S_N" depart="324.0" departLane="random" departSpeed="10" />
    <vehicle id="N_S_79" type="Bike" route="N_S" depart="324.0" departLane="random" departSpeed="10" />
    <vehicle id="W_S_80" type="Car" route="E_S" depart="326.0" departLane="random" departSpeed="10" />
    <vehicle id="W_N_81" type="Car" route="W_N" depart="326.0" departLane="random" departSpeed="10" />
    <vehicle id="N_W_82" type="Car" route="S_W" depart="328.0" departLane="random" departSpeed="10" />
    <vehicle id="W_E_83" type="Car" route="W_E" depart="328.0" departLane="random" departSpeed="10" />
    <vehicle id="N_W_84" type="Bike" route="S_W" depart="332.0" departLane="random" departSpeed="10" />
    <vehicle id="S_E_85" type="Bike" route="S_E" depart="333.0" departLane="random" departSpeed="10" />
    <vehicle id="N_S_86" type="Bike" route="N_S" depart="334.0" departLane="random" departSpeed="10" />
    <vehicle id="S_E_87" type="Bike" route="S_E" depart="334.0" departLane="random" departSpeed="10" />
    <vehicle id="N_W_88" type="Car" route="S_W" depart="341.0" departLane="random" departSpeed="10" />
    <vehicle id="E_W_89" type="Bike" route="E_W" depart="348.0" departLane="random" departSpeed="10" />
    <vehicle id="W_S_90" type="Bike" route="E_S" depart="349.0" departLane="random" departSpeed="10" />
    <vehicle id="N_S_91" type="Car" route="N_S" depart="352.0" departLane="random" departSpeed="10" />
    <vehicle id="S_E_92" type="Bike" route="S_E" depart="352.0" departLane="random" departSpeed="10" />
    <vehicle id="W_S_93" type="Car" route="E_S" depart="353.0" departLane="random" departSpeed="10" />
    <vehicle id="W_E_94" type="Bike" route="W_E" depart="355.0" departLane="random" departSpeed="10" />
    <vehicle id="S_N_95" type="Auto" route="S_N" depart="368.0" departLane="random" departSpeed="10" />
    <vehicle id="N_W_96" type="Bike" route="S_W" depart="371.0" departLane="random" departSpeed="10" />
    <vehicle id="N_S_97" type="Bike" route="N_S" depart="375.0" departLane="random" departSpeed="10" />
    <vehicle id="E_W_98" type="Auto" route="E_W" depart="380.0" departLane="random" departSpeed="10" />
    <vehicle id="E_N_99" type="Bike" route="E_N" depart="381.0" departLane="random" departSpeed="10" />
    <vehicle id="S_N_100" type="Bike" route="S_N" depart="390.0" departLane="random" departSpeed="10" />
    <vehicle id="S_N_101" type="Bike" route="S_N" depart="392.0" departLane="random" departSpeed="10" />
    <vehicle id="W_S_102" type="Bike" route="E_S" depart="396.0" departLane="random" departSpeed="10" />
    <vehicle id="W_S_103" type="Auto" route="E_S" depart="401.0" departLane="random" departSpeed="10" />
    <vehicle id="N_E_104" type="Auto" route="N_E" depart="408.0" departLane="random" departSpeed="10" />
    <vehicle id="S_N_105" type="Bike" route="S_N" depart="408.0" departLane="random" departSpeed="10" />
    <vehicle id="S_N_106" type="Car" route="S_N" depart="410.0" departLane="random" departSpeed="10" />
    <vehicle id="S_E_107" type="Auto" route="S_E" depart="411.0" departLane="random" departSpeed="10" />
    <vehicle id="W_S_108" type="Car" route="E_S" depart="412.0" departLane="random" departSpeed="10" />
    <vehicle id="W_E_109" type="Car" route="W_E" depart="413.0" departLane="random" departSpeed="10" />
    <vehicle id="N_E_110" type="Bike" route="N_E" depart="414.0" departLane="random" departSpeed="10" />
    <vehicle id="E_N_111" type="Auto" route="E_N" depart="421.0" departLane="random" departSpeed="10" />
    <vehicle id="W_N_112" type="Bike" route="W_N" depart="427.0" departLane="random" departSpeed="10" />
    <vehicle id="E_N_113" type="Auto" route="E_N" depart="428.0" departLane="random" departSpeed="10" />
    <vehicle id="E_N_114" type="Bike" route="E_N" depart="436.0" departLane="random" departSpeed="10" />
    <vehicle id="W_E_115" type="Car" route="W_E" depart="438.0" departLane="random" departSpeed="10" />
    <vehicle id="E_W_116" type="Bike" route="E_W" depart="439.0" departLane="random" departSpeed="10" />
    <vehicle id="E_W_117" type="Bike" route="E_W" depart="444.0" departLane="random" departSpeed="10" />
    <vehicle id="S_N_118" type="Bike" route="S_N" depart="447.0" departLane="random" departSpeed="10" />
    <vehicle id="E_W_119" type="Auto" route="E_W" depart="453.0" departLane="random" departSpeed="10" />
    <vehicle id="N_E_120" type="Car" route="N_E" depart="453.0" departLane="random" departSpeed="10" />
    <vehicle id="S_E_121" type="Bike" route="S_E" depart="456.0" departLane="random" departSpeed="10" />
    <vehicle id="E_W_122" type="Car" route="E_W" depart="459.0" departLane="random" departSpeed="10" />
    <vehicle id="N_E_123" type="Bus" route="N_E" depart="461.0" departLane="random" departSpeed="10" />
    <vehicle id="S_W_124" type="Bus" route="N_W" depart="461.0" departLane="random" departSpeed="10" />
    <vehicle id="S_N_125" type="Car" route="S_N" depart="463.0" departLane="random" departSpeed="10" />
    <vehicle id="N_S_126" type="Bike" route="N_S" depart="464.0" departLane="random" departSpeed="10" />
    <vehicle id="N_E_127" type="Car" route="N_E" depart="464.0" departLane="random" departSpeed="10" />
    <vehicle id="N_E_128" type="Bus" route="N_E" depart="467.0" departLane="random" departSpeed="10" />
    <vehicle id="N_W_129" type="Car" route="S_W" depart="468.0" departLane="random" departSpeed="10" />
    <vehicle id="S_N_130" type="Car" route="S_N" depart="471.0" departLane="random" departSpeed="10" />
    <vehicle id="N_W_131" type="Car" route="S_W" depart="471.0" departLane="random" departSpeed="10" />
    <vehicle id="W_N_132" type="Bike" route="W_N" depart="474.0" departLane="random" departSpeed="10" />
    <vehicle id="W_S_133" type="Bike" route="E_S" depart="475.0" departLane="random" departSpeed="10" />
    <vehicle id="W_N_134" type="Bike" route="W_N" depart="476.0" departLane="random" departSpeed="10" />
    <vehicle id="N_E_135" type="Car" route="N_E" depart="479.0" departLane="random" departSpeed="10" />
    <vehicle id="N_S_136" type="Bus" route="N_S" depart="480.0" departLane="random" departSpeed="10" />
    <vehicle id="W_E_137" type="Car" route="W_E" depart="485.0" departLane="random" departSpeed="10" />
    <vehicle id="S_E_138" type="Bike" route="S_E" depart="489.0" departLane="random" departSpeed="10" />
    <vehicle id="N_W_139" type="Car" route="S_W" depart="491.0" departLane="random" departSpeed="10" />
    <vehicle id="N_W_140" type="Car" route="S_W" depart="491.0" departLane="random" departSpeed="10" />
    <vehicle id="W_E_141" type="Bike" route="W_E" depart="493.0" departLane="random" departSpeed="10" />
    <vehicle id="N_S_142" type="Car" route="N_S" depart="495.0" departLane="random" departSpeed="10" />
    <vehicle id="E_W_143" type="Bike" route="E_W" depart="495.0" departLane="random" departSpeed="10" />
    <vehicle id="S_E_144" type="Bike" route="S_E" depart="496.0" departLane="random" departSpeed="10" />
    <vehicle id="W_S_145" type="Auto" route="E_S" depart="501.0" departLane="random" departSpeed="10" />
    <vehicle id="W_S_146" type="Bus" route="E_S" depart="502.0" departLane="random" departSpeed="10" />
    <vehicle id="E_W_147" type="Auto" route="E_W" depart="503.0" departLane="random" departSpeed="10" />
    <vehicle id="N_W_148" type="Bike" route="S_W" depart="506.0" departLane="random" departSpeed="10" />
    <vehicle id="N_S_149" type="Car" route="N_S" depart="506.0" departLane="random" departSpeed="10" />
    <vehicle id="N_S_150" type="Car" route="N_S" depart="510.0" departLane="random" departSpeed="10" />
    <vehicle id="E_N_151" type="Bike" route="E_N" depart="510.0" departLane="random" departSpeed="10" />
    <vehicle id="N_E_152" type="Bike" route="N_E" depart="513.0" departLane="random" departSpeed="10" />
    <vehicle id="W_E_153" type="Bike" route="W_E" depart="513.0" departLane="random" departSpeed="10" />
    <vehicle id="N_W_154" type="Bike" route="S_W" depart="517.0" departLane="random" departSpeed="10" />
    <vehicle id="W_N_155" type="Bus" route="W_N" depart="517.0" departLane="random" departSpeed="10" />
    <vehicle id="W_S_156" type="Bike" route="E_S" depart="518.0" departLane="random" departSpeed="10" />
    <vehicle id="N_S_157" type="Bike" route="N_S" depart="519.0" departLane="random" departSpeed="10" />
    <vehicle id="N_W_158" type="Car" route="S_W" depart="519.0" departLane="random" departSpeed="10" />
    <vehicle id="N_E_159" type="Bike" route="N_E" depart="519.0" departLane="random" departSpeed="10" />
    <vehicle id="W_S_160" type="Bike" route="E_S" depart="526.0" departLane="random" departSpeed="10" />
    <vehicle id="W_N_161" type="Bike" route="W_N" depart="526.0" departLane="random" departSpeed="10" />
    <vehicle id="S_N_162" type="Auto" route="S_N" depart="527.0" departLane="random" departSpeed="10" />
    <vehicle id="W_E_163" type="Bike" route="W_E" depart="527.0" departLane="random" departSpeed="10" />
    <vehicle id="N_E_164" type="Auto" route="N_E" depart="527.0" departLane="random" departSpeed="10" />
    <vehicle id="W_N_165" type="Car" route="W_N" depart="528.0" departLane="random" departSpeed="10" />
    <vehicle id="N_E_166" type="Car" route="N_E" depart="530.0" departLane="random" departSpeed="10" />
    <vehicle id="N_W_167" type="Bike" route="S_W" depart="530.0" departLane="random" departSpeed="10" />
    <vehicle id="S_E_168" type="Bike" route="S_E" depart="531.0" departLane="random" departSpeed="10" />
    <vehicle id="E_W_169" type="Car" route="E_W" depart="532.0" departLane="random" departSpeed="10" />
    <vehicle id="E_W_170" type="Car" route="E_W" depart="533.0" departLane="random" departSpeed="10" />
    <vehicle id="E_W_171" type="Bus" route="E_W" depart="535.0" departLane="random" departSpeed="10" />
    <vehicle id="N_E_172" type="Auto" route="N_E" depart="536.0" departLane="random" departSpeed="10" />
    <vehicle id="E_W_173" type="Bike" route="E_W" depart="537.0" departLane="random" departSpeed="10" />
    <vehicle id="W_N_174" type="Car" route="W_N" depart="538.0" departLane="random" departSpeed="10" />
    <vehicle id="W_E_175" type="Bike" route="W_E" depart="539.0" departLane="random" departSpeed="10" />
    <vehicle id="W_N_176" type="Bike" route="W_N" depart="541.0" departLane="random" departSpeed="10" />
    <vehicle id="N_W_177" type="Auto" route="S_W" depart="542.0" departLane="random" departSpeed="10" />
    <vehicle id="S_N_178" type="Bike" route="S_N" depart="544.0" departLane="random" departSpeed="10" />
    <vehicle id="W_E_179" type="Bus" route="W_E" depart="544.0" departLane="random" departSpeed="10" />
    <vehicle id="E_W_180" type="Car" route="E_W" depart="545.0" departLane="random" departSpeed="10" />
    <vehicle id="W_N_181" type="Bike" route="W_N" depart="545.0" departLane="random" departSpeed="10" />
    <vehicle id="E_W_182" type="Car" route="E_W" depart="546.0" departLane="random" departSpeed="10" />
    <vehicle id="W_N_183" type="Bike" route="W_N" depart="547.0" departLane="random" departSpeed="10" />
    <vehicle id="E_W_184" type="Bike" route="E_W" depart="548.0" departLane="random" departSpeed="10" />
    <vehicle id="W_E_185" type="Bike" route="W_E" depart="548.0" departLane="random" departSpeed="10" />
    <vehicle id="W_S_186" type="Bike" route="E_S" depart="549.0" departLane="random" departSpeed="10" />
    <vehicle id="W_S_187" type="Car" route="E_S" depart="549.0" departLane="random" departSpeed="10" />
    <vehicle id="S_W_188" type="Bike" route="N_W" depart="553.0" departLane="random" departSpeed="10" />
    <vehicle id="S_N_189" type="Bike" route="S_N" depart="554.0" departLane="random" departSpeed="10" />
    <vehicle id="W_S_190" type="Bike" route="E_S" depart="556.0" departLane="random" departSpeed="10" />
    <vehicle id="S_N_191" type="Bus" route="S_N" depart="559.0" departLane="random" departSpeed="10" />
    <vehicle id="W_E_192" type="Bike" route="W_E" depart="559.0" departLane="random" departSpeed="10" />
    <vehicle id="N_E_193" type="Auto" route="N_E" depart="564.0" departLane="random" departSpeed="10" />
    <vehicle id="S_E_194" type="Car" route="S_E" depart="567.0" departLane="random" departSpeed="10" />
    <vehicle id="N_S_195" type="Bike" route="N_S" depart="568.0" departLane="random" departSpeed="10" />
    <vehicle id="N_S_196" type="Bike" route="N_S" depart="569.0" departLane="random" departSpeed="10" />
    <vehicle id="N_S_197" type="Auto" route="N_S" depart="571.0" departLane="random" departSpeed="10" />
    <vehicle id="N_W_198" type="Bike" route="S_W" depart="572.0" departLane="random" departSpeed="10" />
    <vehicle id="W_S_199" type="Bike" route="E_S" depart="573.0" departLane="random" departSpeed="10" />
    <vehicle id="E_N_200" type="Bus" route="E_N" depart="573.0" departLane="random" departSpeed="10" />
    <vehicle id="W_S_201" type="Auto" route="E_S" depart="582.0" departLane="random" departSpeed="10" />
    <vehicle id="E_W_202" type="Bike" route="E_W" depart="583.0" departLane="random" departSpeed="10" />
    <vehicle id="N_W_203" type="Bike" route="S_W" depart="591.0" departLane="random" departSpeed="10" />
    <vehicle id="S_E_204" type="Car" route="S_E" depart="594.0" departLane="random" departSpeed="10" />
    <vehicle id="S_N_205" type="Bike" route="S_N" depart="594.0" departLane="random" departSpeed="10" />
    <vehicle id="W_S_206" type="Bike" route="E_S" depart="596.0" departLane="random" departSpeed="10" />
    <vehicle id="N_S_207" type="Car" route="N_S" depart="596.0" departLane="random" departSpeed="10" />
    <vehicle id="N_E_208" type="Car" route="N_E" depart="597.0" departLane="random" departSpeed="10" />
    <vehicle id="S_N_209" type="Car" route="S_N" depart="602.0" departLane="random" departSpeed="10" />
    <vehicle id="W_N_210" type="Bike" route="W_N" depart="604.0" departLane="random" departSpeed="10" />
    <vehicle id="N_E_211" type="Bike" route="N_E" depart="605.0" departLane="random" departSpeed="10" />
    <vehicle id="S_W_212" type="Bike" route="N_W" depart="609.0" departLane="random" departSpeed="10" />
    <vehicle id="S_W_213" type="Bike" route="N_W" depart="612.0" departLane="random" departSpeed="10" />
    <vehicle id="N_W_214" type="Bike" route="S_W" depart="618.0" departLane="random" departSpeed="10" />
    <vehicle id="W_E_215" type="Bike" route="W_E" depart="618.0" departLane="random" departSpeed="10" />
    <vehicle id="W_E_216" type="Bike" route="W_E" depart="620.0" departLane="random" departSpeed="10" />
    <vehicle id="W_S_217" type="Bike" route="E_S" depart="620.0" departLane="random" departSpeed="10" />
    <vehicle id="E_W_218" type="Auto" route="E_W" depart="621.0" departLane="random" departSpeed="10" />
    <vehicle id="N_E_219" type="Bike" route="N_E" depart="622.0" departLane="random" departSpeed="10" />
    <vehicle id="E_W_220" type="Car" route="E_W" depart="623.0" departLane="random" departSpeed="10" />
    <vehicle id="N_W_221" type="Auto" route="S_W" depart="623.0" departLane="random" departSpeed="10" />
    <vehicle id="W_N_222" type="Bike" route="W_N" depart="624.0" departLane="random" departSpeed="10" />
    <vehicle id="N_E_223" type="Bike" route="N_E" depart="627.0" departLane="random" departSpeed="10" />
    <vehicle id="S_N_224" type="Bike" route="S_N" depart="629.0" departLane="random" departSpeed="10" />
    <vehicle id="E_S_225" type="Auto" route="W_S" depart="630.0" departLane="random" departSpeed="10" />
    <vehicle id="E_W_226" type="Auto" route="E_W" depart="634.0" departLane="random" departSpeed="10" />
    <vehicle id="S_N_227" type="Auto" route="S_N" depart="636.0" departLane="random" departSpeed="10" />
    <vehicle id="E_N_228" type="Car" route="E_N" depart="637.0" departLane="random" departSpeed="10" />
    <vehicle id="E_W_229" type="Bike" route="E_W" depart="638.0" departLane="random" departSpeed="10" />
    <vehicle id="E_S_230" type="Bike" route="W_S" depart="638.0" departLane="random" departSpeed="10" />
    <vehicle id="W_S_231" type="Bike" route="E_S" depart="638.0" departLane="random" departSpeed="10" />
    <vehicle id="N_S_232" type="Bike" route="N_S" depart="639.0" departLane="random" departSpeed="10" />
    <vehicle id="N_W_233" type="Car" route="S_W" depart="644.0" departLane="random" departSpeed="10" />
    <vehicle id="W_N_234" type="Bike" route="W_N" depart="644.0" departLane="random" departSpeed="10" />
    <vehicle id="S_N_235" type="Bike" route="S_N" depart="646.0" departLane="random" departSpeed="10" />
    <vehicle id="S_N_236" type="Auto" route="S_N" depart="648.0" departLane="random" departSpeed="10" />
    <vehicle id="N_W_237" type="Bus" route="S_W" depart="649.0" departLane="random" departSpeed="10" />
    <vehicle id="N_W_238" type="Bike" route="S_W" depart="649.0" departLane="random" departSpeed="10" />
    <vehicle id="S_N_239" type="Bike" route="S_N" depart="658.0" departLane="random" departSpeed="10" />
    <vehicle id="N_S_240" type="Auto" route="N_S" depart="659.0" departLane="random" departSpeed="10" />
    <vehicle id="S_E_241" type="Bike" route="S_E" depart="659.0" departLane="random" departSpeed="10" />
    <vehicle id="E_W_242" type="Bike" route="E_W" depart="660.0" departLane="random" departSpeed="10" />
    <vehicle id="N_S_243" type="Auto" route="N_S" depart="660.0" departLane="random" departSpeed="10" />
    <vehicle id="W_N_244" type="Auto" route="W_N" depart="662.0" departLane="random" departSpeed="10" />
    <vehicle id="N_E_245" type="Bike" route="N_E" depart="663.0" departLane="random" departSpeed="10" />
    <vehicle id="S_W_246" type="Bike" route="N_W" depart="666.0" departLane="random" departSpeed="10" />
    <vehicle id="E_N_247" type="Car" route="E_N" depart="667.0" departLane="random" departSpeed="10" />
    <vehicle id="S_E_248" type="Bike" route="S_E" depart="673.0" departLane="random" departSpeed="10" />
    <vehicle id="N_W_249" type="Car" route="S_W" depart="674.0" departLane="random" departSpeed="10" />
    <vehicle id="N_E_250" type="Bike" route="N_E" depart="674.0" departLane="random" departSpeed="10" />
    <vehicle id="E_S_251" type="Bike" route="W_S" depart="676.0" departLane="random" departSpeed="10" />
    <vehicle id="E_W_252" type="Bike" route="E_W" depart="680.0" departLane="random" departSpeed="10" />
    <vehicle id="N_W_253" type="Auto" route="S_W" depart="684.0" departLane="random" departSpeed="10" />
    <vehicle id="E_N_254" type="Bike" route="E_N" depart="685.0" departLane="random" departSpeed="10" />
    <vehicle id="W_E_255" type="Car" route="W_E" depart="687.0" departLane="random" departSpeed="10" />
    <vehicle id="N_W_256" type="Bike" route="S_W" depart="687.0" departLane="random" departSpeed="10" />
    <vehicle id="E_W_257" type="Bike" route="E_W" depart="688.0" departLane="random" departSpeed="10" />
    <vehicle id="E_W_258" type="Bike" route="E_W" depart="688.0" departLane="random" departSpeed="10" />
    <vehicle id="N_W_259" type="Bike" route="S_W" depart="689.0" departLane="random" departSpeed="10" />
    <vehicle id="N_S_260" type="Bus" route="N_S" depart="690.0" departLane="random" departSpeed="10" />
    <vehicle id="E_W_261" type="Auto" route="E_W" depart="691.0" departLane="random" departSpeed="10" />
    <vehicle id="W_S_262" type="Bike" route="E_S" depart="691.0" departLane="random" departSpeed="10" />
    <vehicle id="W_E_263" type="Car" route="W_E" depart="693.0" departLane="random" departSpeed="10" />
    <vehicle id="N_E_264" type="Bike" route="N_E" depart="696.0" departLane="random" departSpeed="10" />
    <vehicle id="W_E_265" type="Bus" route="W_E" depart="697.0" departLane="random" departSpeed="10" />
    <vehicle id="W_N_266" type="Car" route="W_N" depart="697.0" departLane="random" departSpeed="10" />
    <vehicle id="S_N_267" type="Bike" route="S_N" depart="700.0" departLane="random" departSpeed="10" />
    <vehicle id="E_W_268" type="Bus" route="E_W" depart="701.0" departLane="random" departSpeed="10" />
    <vehicle id="S_E_269" type="Bike" route="S_E" depart="702.0" departLane="random" departSpeed="10" />
    <vehicle id="N_W_270" type="Car" route="S_W" depart="711.0" departLane="random" departSpeed="10" />
    <vehicle id="N_E_271" type="Auto" route="N_E" depart="711.0" departLane="random" departSpeed="10" />
    <vehicle id="S_N_272" type="Bike" route="S_N" depart="711.0" departLane="random" departSpeed="10" />
    <vehicle id="N_W_273" type="Auto" route="S_W" depart="715.0" departLane="random" departSpeed="10" />
    <vehicle id="E_S_274" type="Auto" route="W_S" depart="715.0" departLane="random" departSpeed="10" />